version 3
run Baseline-3-20251002-15:59:37-80572
attr configname Baseline
attr datetime 20251002-15:59:37
attr datetimef 20251002-155937
attr experiment Baseline
attr inifile omnetpp.ini
attr iterationvars ""
attr iterationvarsd ""
attr iterationvarsf ""
attr measurement ""
attr network MinimalAttackNetwork
attr processid 80572
attr repetition 3
attr replication #3
attr resultdir results_flat
attr runnumber 3
attr seedset 3
config image-path ../../../../SharedRoom/omnetpp-ml-workspace/inet4.5/images
config extends General
config description "Baseline: Normal TSN operation without attacks (Label: normal)"
config *.centralSwitch.bridging.streamFilter.ingress.hasDefaultPath false
config *.criticalSensor.numApps 2
config *.criticalSensor.app[0].typename UdpSourceApp
config *.criticalSensor.app[0].source.packetNameFormat "\"CRITICAL_SENSOR-%c\""
config *.criticalSensor.app[0].source.packetLength 175B
config *.criticalSensor.app[0].source.productionInterval 1ms
config *.criticalSensor.app[0].source.startTime 10ms
config *.criticalSensor.app[0].io.destAddress "\"mainECU\""
config *.criticalSensor.app[0].io.destPort 5000
config *.criticalSensor.app[1].typename UdpSourceApp
config *.criticalSensor.app[1].source.packetNameFormat "\"SENSOR_MON-%c\""
config *.criticalSensor.app[1].source.packetLength 150B
config *.criticalSensor.app[1].source.productionInterval 50ms
config *.criticalSensor.app[1].source.startTime 12ms
config *.criticalSensor.app[1].io.destAddress "\"display\""
config *.criticalSensor.app[1].io.destPort 7000
config *.display.numApps 3
config *.display.app[0].typename UdpSinkApp
config *.display.app[0].io.localPort 6000
config *.display.app[1].typename UdpSinkApp
config *.display.app[1].io.localPort 7000
config *.display.app[2].typename UdpSourceApp
config *.display.app[2].source.packetNameFormat "\"DISPLAY_UPDATE-%c\""
config *.display.app[2].source.packetLength 120B
config *.display.app[2].source.productionInterval 50ms
config *.display.app[2].source.startTime 15ms
config *.display.app[2].io.destAddress "\"mainECU\""
config *.display.app[2].io.destPort 6003
config *.mainECU.numApps 3
config *.mainECU.app[0].typename UdpSinkApp
config *.mainECU.app[0].io.localPort 5000
config *.mainECU.app[1].typename UdpSourceApp
config *.mainECU.app[1].source.packetNameFormat "\"STATUS_UPDATE-%c\""
config *.mainECU.app[1].source.packetLength 100B
config *.mainECU.app[1].source.productionInterval 10ms
config *.mainECU.app[1].source.startTime 20ms
config *.mainECU.app[1].io.destAddress "\"display\""
config *.mainECU.app[1].io.destPort 6000
config *.mainECU.app[2].typename UdpSinkApp
config *.mainECU.app[2].io.localPort 6003
config network MinimalAttackNetwork
config sim-time-limit 500ms
config description "Minimal TSN attack scenarios for ML training (500ms)"
config cmdenv-interactive false
config repeat 10
config seed-set 3
config *.dataCollector.outputFile "\"results_flat/tsn_signals_Baseline-#3.csv\""
config user-interface Cmdenv
config *.masterClock.eth[*].bitrate 100Mbps
config *.centralSwitch.eth[0].bitrate 100Mbps
config *.centralSwitch.eth[1].bitrate 1Gbps
config *.centralSwitch.eth[2].bitrate 100Mbps
config *.centralSwitch.eth[3].bitrate 100Mbps
config *.centralSwitch.eth[4].bitrate 100Mbps
config *.centralSwitch.eth[5].bitrate 100Mbps
config *.mainECU.eth[*].bitrate 1Gbps
config *.criticalSensor.eth[*].bitrate 100Mbps
config *.display.eth[*].bitrate 100Mbps
config *.attackerExternal.eth[*].bitrate 100Mbps
config *.compromisedNode.eth[*].bitrate 100Mbps
config *.configurator.config "xml(\"<config><interface hosts='**' address='10.0.0.x' netmask='255.255.255.0'/></config>\")"
config *.centralSwitch.typename TsnSwitch
config *.mainECU.typename TsnDevice
config *.criticalSensor.typename TsnDevice
config *.display.typename TsnDevice
config *.attackerExternal.typename TsnDevice
config *.compromisedNode.typename TsnDevice
config *.masterClock.typename TsnClock
config *.mainECU.hasUdp true
config *.criticalSensor.hasUdp true
config *.display.hasUdp true
config *.attackerExternal.hasUdp true
config *.compromisedNode.hasUdp true
config *.mainECU.hasIpv4 true
config *.criticalSensor.hasIpv4 true
config *.display.hasIpv4 true
config *.attackerExternal.hasIpv4 true
config *.compromisedNode.hasIpv4 true
config *.*.hasTimeSynchronization true
config *.*.clock.oscillator.driftRate "uniform(-20ppm, 20ppm)"
config **.gptp.syncInterval 10ms
config **.gptp.syncInitialOffset 1ms
config **.gptp.pdelayInterval 50ms
config **.gptp.pdelayInitialOffset 1ms
config *.masterClock.gptp.masterPorts "[\"eth0\"]"
config *.centralSwitch.gptp.slavePort "\"eth0\""
config *.centralSwitch.gptp.masterPorts "[\"eth1\",\"eth2\",\"eth3\",\"eth4\",\"eth5\"]"
config *.*.hasOutgoingStreams true
config *.centralSwitch.hasEgressTrafficShaping true
config *.centralSwitch.hasIncomingStreams true
config *.criticalSensor.bridging.streamIdentifier.typename StreamIdentifierLayer
config *.criticalSensor.bridging.streamCoder.typename StreamCoderLayer
config *.centralSwitch.bridging.streamCoder.encoder.mapping "[{stream: \"critical_control\", pcp: 7, vlan: 10}, {stream: \"status_updates\", pcp: 5, vlan: 30}, {stream: \"display_data\", pcp: 3, vlan: 20}, {stream: \"external_attack\", pcp: 0, vlan: 40}, {stream: \"compromised_attack\", pcp: 0, vlan: 41}]"
config *.centralSwitch.bridging.streamCoder.decoder.mapping "[{stream: \"critical_control\", pcp: 7, destination: \"mainECU\"}, {stream: \"status_updates\", pcp: 5, destination: \"mainECU\"}, {stream: \"display_data\", pcp: 3, destination: \"mainECU\"}, {stream: \"external_attack\", pcp: 0, source: \"attackerExternal\", destination: \"mainECU\"}, {stream: \"compromised_attack\", pcp: 0, source: \"compromisedNode\", destination: \"mainECU\"}]"
config "*.centralSwitch.bridging.streamCoder.decoder.mapping +" "[{pcp: 4, stream: \"sensor_monitoring\"}]"
config "*.centralSwitch.bridging.streamCoder.decoder.mapping +" "[{pcp: 4, destination: \"display\", stream: \"sensor_monitoring\"}]"
config "*.centralSwitch.bridging.streamCoder.decoder.mapping +" "[{stream: \"sensor_monitoring\", packetFilter: expr(has(udp) && udp.destPort == 7000)}]"
config "*.centralSwitch.bridging.streamCoder.encoder.mapping +" "[{stream: \"sensor_monitoring\", pcp: 4, vlan: 25}]"
config "*.centralSwitch.bridging.streamCoder.decoder.mapping +" "[{destination: \"01:80:C2:00:00:0E\", stream: \"gptp\"}]"
config "*.centralSwitch.bridging.streamCoder.decoder.mapping +" "[{packetFilter: expr(ethernetMacHeader.typeOrLength == 0x88f7), stream: \"gptp\"}]"
config "*.centralSwitch.bridging.streamCoder.decoder.mapping +" "[{pcp: 0, stream: \"default_stream\"}]"
config "*.centralSwitch.bridging.streamIdentifier.identifier.mapping +" "[{stream: \"gptp\", packetFilter: expr(has(etherTypeInd) && etherTypeInd.etherType == 0x88f7)}]"
config "*.centralSwitch.bridging.streamIdentifier.identifier.mapping +" "[{stream: \"gptp\", packetFilter: expr(ethernetMacHeader.typeOrLength == 0x88f7)}]"
config "*.centralSwitch.bridging.streamIdentifier.identifier.mapping +" "[{stream: \"gptp\", packetFilter: expr(etherType == 0x88f7)}]"
config "*.centralSwitch.bridging.streamIdentifier.identifier.mapping +" "[{stream: \"gptp\", packetFilter: expr(destAddress == \"01:80:C2:00:00:0E\")}]"
config *.centralSwitch.bridging.streamFilter.ingress.numStreams 8
config *.centralSwitch.bridging.streamFilter.ingress.classifier.mapping "{\"critical_control\": 0, \"status_updates\": 1, \"external_attack\": 2, \"compromised_attack\": 3, \"display_data\": 4, \"gptp\": 5, \"default_stream\": 6, \"sensor_monitoring\": 7}"
config *.centralSwitch.bridging.streamFilter.ingress.hasDefaultPath false
config *.centralSwitch.bridging.streamFilter.ingress.classifier.mode "\"both\""
config *.centralSwitch.bridging.streamFilter.ingress.classifier.defaultGateIndex 5
config *.centralSwitch.bridging.streamFilter.ingress.meter[*].typename DualRateThreeColorMeter
config *.centralSwitch.bridging.streamFilter.ingress.meter[0].display-name critical_control
config *.centralSwitch.bridging.streamFilter.ingress.meter[1].display-name status_updates
config *.centralSwitch.bridging.streamFilter.ingress.meter[2].display-name external_attack
config *.centralSwitch.bridging.streamFilter.ingress.meter[3].display-name compromised_attack
config *.centralSwitch.bridging.streamFilter.ingress.meter[4].display-name display_data
config *.centralSwitch.bridging.streamFilter.ingress.meter[0].committedInformationRate 10Mbps
config *.centralSwitch.bridging.streamFilter.ingress.meter[0].committedBurstSize 5kB
config *.centralSwitch.bridging.streamFilter.ingress.meter[0].excessInformationRate 5Mbps
config *.centralSwitch.bridging.streamFilter.ingress.meter[0].excessBurstSize 3kB
config *.centralSwitch.bridging.streamFilter.ingress.meter[1].committedInformationRate 5Mbps
config *.centralSwitch.bridging.streamFilter.ingress.meter[1].committedBurstSize 3kB
config *.centralSwitch.bridging.streamFilter.ingress.meter[1].excessInformationRate 2Mbps
config *.centralSwitch.bridging.streamFilter.ingress.meter[1].excessBurstSize 1kB
config *.centralSwitch.bridging.streamFilter.ingress.meter[2].committedInformationRate 50kbps
config *.centralSwitch.bridging.streamFilter.ingress.meter[2].committedBurstSize 256B
config *.centralSwitch.bridging.streamFilter.ingress.meter[2].excessInformationRate 25kbps
config *.centralSwitch.bridging.streamFilter.ingress.meter[2].excessBurstSize 128B
config *.centralSwitch.bridging.streamFilter.ingress.meter[3].committedInformationRate 50kbps
config *.centralSwitch.bridging.streamFilter.ingress.meter[3].committedBurstSize 256B
config *.centralSwitch.bridging.streamFilter.ingress.meter[3].excessInformationRate 25kbps
config *.centralSwitch.bridging.streamFilter.ingress.meter[3].excessBurstSize 128B
config *.centralSwitch.bridging.streamFilter.ingress.meter[4].committedInformationRate 2Mbps
config *.centralSwitch.bridging.streamFilter.ingress.meter[4].committedBurstSize 2kB
config *.centralSwitch.bridging.streamFilter.ingress.meter[4].excessInformationRate 1Mbps
config *.centralSwitch.bridging.streamFilter.ingress.meter[4].excessBurstSize 1kB
config *.centralSwitch.bridging.streamFilter.ingress.meter[5].display-name gptp
config *.centralSwitch.bridging.streamFilter.ingress.meter[5].committedInformationRate 1Mbps
config *.centralSwitch.bridging.streamFilter.ingress.meter[5].committedBurstSize 1kB
config *.centralSwitch.bridging.streamFilter.ingress.meter[5].excessInformationRate 1Mbps
config *.centralSwitch.bridging.streamFilter.ingress.meter[5].excessBurstSize 1kB
config *.centralSwitch.bridging.streamFilter.ingress.meter[6].display-name default_stream
config *.centralSwitch.bridging.streamFilter.ingress.meter[6].committedInformationRate 1bps
config *.centralSwitch.bridging.streamFilter.ingress.meter[6].committedBurstSize 1B
config *.centralSwitch.bridging.streamFilter.ingress.meter[6].excessInformationRate 1bps
config *.centralSwitch.bridging.streamFilter.ingress.meter[6].excessBurstSize 1B
config *.centralSwitch.bridging.streamFilter.ingress.meter[7].display-name sensor_monitoring
config *.centralSwitch.bridging.streamFilter.ingress.meter[7].committedInformationRate 3Mbps
config *.centralSwitch.bridging.streamFilter.ingress.meter[7].committedBurstSize 2kB
config *.centralSwitch.bridging.streamFilter.ingress.meter[7].excessInformationRate 1Mbps
config *.centralSwitch.bridging.streamFilter.ingress.meter[7].excessBurstSize 1kB
config *.centralSwitch.bridging.streamFilter.ingress.filter[5].labelFilter "\"green or yellow\""
config *.criticalSensor.bridging.streamIdentifier.identifier.mapping "[{stream: \"critical_control\", packetFilter: expr(has(udp) && udp.destPort == 5000)}]"
config *.criticalSensor.bridging.streamCoder.encoder.mapping "[{stream: \"critical_control\", pcp: 7, vlan: 10}]"
config *.mainECU.bridging.streamIdentifier.identifier.mapping "[{stream: \"status_updates\", packetFilter: expr(has(udp) && udp.destPort == 6000)}]"
config *.mainECU.bridging.streamCoder.encoder.mapping "[{stream: \"status_updates\", pcp: 5, vlan: 30}]"
config "*.criticalSensor.bridging.streamIdentifier.identifier.mapping +" "[{stream: \"sensor_monitoring\", packetFilter: expr(has(udp) && udp.destPort == 7000)}]"
config "*.criticalSensor.bridging.streamCoder.encoder.mapping +" "[{stream: \"sensor_monitoring\", pcp: 4, vlan: 25}]"
config *.display.bridging.streamIdentifier.identifier.mapping "[{stream: \"display_data\", packetFilter: expr(has(udp) && udp.destPort == 6003)}]"
config *.display.bridging.streamCoder.encoder.mapping "[{stream: \"display_data\", pcp: 3, vlan: 20}]"
config *.attackerExternal.bridging.streamIdentifier.identifier.mapping "[{stream: \"external_attack\", packetFilter: expr(has(udp) && udp.destPort == 5000)}]"
config *.attackerExternal.bridging.streamCoder.encoder.mapping "[{stream: \"external_attack\", pcp: 0, vlan: 40}]"
config *.compromisedNode.bridging.streamIdentifier.identifier.mapping "[{stream: \"compromised_attack\", packetFilter: expr(has(udp) && (udp.destPort == 8888 || udp.destPort == 5000))}]"
config *.compromisedNode.bridging.streamCoder.encoder.mapping "[{stream: \"compromised_attack\", pcp: 0, vlan: 41}]"
config *.criticalSensor.hasOutgoingStreams true
config *.display.hasOutgoingStreams true
config *.attackerExternal.hasOutgoingStreams true
config *.compromisedNode.hasOutgoingStreams true
config *.mainECU.hasOutgoingStreams true
config *.masterClock.hasOutgoingStreams true
config *.masterClock.bridging.streamIdentifier.identifier.mapping "[{stream: \"gptp\", packetFilter: expr(etherType == 0x88f7)}]"
config *.masterClock.bridging.streamCoder.encoder.mapping "[{stream: \"gptp\", pcp: 6, vlan: 0}]"
config "*.criticalSensor.bridging.streamIdentifier.identifier.mapping +" "[{stream: \"default_stream\", packetFilter: expr(true)}]"
config "*.criticalSensor.bridging.streamCoder.encoder.mapping        +" "[{stream: \"default_stream\",  pcp: 0, vlan: 0}]"
config "*.display.bridging.streamIdentifier.identifier.mapping       +" "[{stream: \"default_stream\", packetFilter: expr(true)}]"
config "*.display.bridging.streamCoder.encoder.mapping               +" "[{stream: \"default_stream\",  pcp: 0, vlan: 0}]"
config "*.attackerExternal.bridging.streamIdentifier.identifier.mapping +" "[{stream: \"default_stream\", packetFilter: expr(true)}]"
config "*.attackerExternal.bridging.streamCoder.encoder.mapping         +" "[{stream: \"default_stream\",  pcp: 0, vlan: 0}]"
config "*.compromisedNode.bridging.streamIdentifier.identifier.mapping  +" "[{stream: \"default_stream\", packetFilter: expr(true)}]"
config "*.compromisedNode.bridging.streamCoder.encoder.mapping          +" "[{stream: \"default_stream\",  pcp: 0, vlan: 0}]"
config "*.mainECU.bridging.streamIdentifier.identifier.mapping          +" "[{stream: \"default_stream\", packetFilter: expr(true)}]"
config "*.mainECU.bridging.streamCoder.encoder.mapping                  +" "[{stream: \"default_stream\",  pcp: 0, vlan: 0}]"
config *.centralSwitch.eth[*].macLayer.queue.numTrafficClasses 8
config *.centralSwitch.eth[*].macLayer.queue.classifier.typename PcpClassifier
config *.centralSwitch.eth[*].macLayer.queue.classifier.pcpToGateIndex "[0, 1, 2, 3, 4, 5, 6, 7]"
config *.centralSwitch.eth[*].macLayer.queue.transmissionGate[*].typename PeriodicGate
config *.centralSwitch.eth[*].macLayer.queue.transmissionGate[7].durations "[250us, 250us]"
config *.centralSwitch.eth[*].macLayer.queue.transmissionGate[6].durations "[200us, 300us]"
config *.centralSwitch.eth[*].macLayer.queue.transmissionGate[5].durations "[150us, 350us]"
config *.centralSwitch.eth[*].macLayer.queue.transmissionGate[4].durations "[100us, 400us]"
config *.centralSwitch.eth[*].macLayer.queue.transmissionGate[3].durations "[100us, 400us]"
config *.centralSwitch.eth[*].macLayer.queue.transmissionGate[2].durations "[50us, 450us]"
config *.centralSwitch.eth[*].macLayer.queue.transmissionGate[1].durations "[50us, 450us]"
config *.centralSwitch.eth[*].macLayer.queue.transmissionGate[0].durations "[25us, 475us]"
config *.centralSwitch.hasStreamRedundancy false
config *.centralSwitch.hasIngressTrafficFiltering true
config *.centralSwitch.bridging.streamIdentifier.typename StreamIdentifierLayer
config *.centralSwitch.bridging.streamIdentifier.identifier.typename StreamIdentifier
config *.centralSwitch.hasEgressTrafficShaping true
config *.centralSwitch.hasStreamFiltering true
config *.centralSwitch.hasStreamPolicing true
config *.centralSwitch.bridging.streamFilter.ingress.meter[*].colorAware false
config **.app[*].endToEndDelay:vector.result-recording-modes all
config **.app[*].endToEndDelay:vector.vector-recording true
config **.app[*].endToEndDelay:histogram.result-recording-modes all
config **.bitrate:vector.result-recording-modes all
config **.bitrate:vector.vector-recording true
config **.throughput:vector.result-recording-modes all
config **.throughput:vector.vector-recording true
config **.datarate:vector.result-recording-modes all
config **.datarate:vector.vector-recording true
config **.queue.queueLength:vector.result-recording-modes all
config **.queue.queueLength:vector.vector-recording true
config **.queue.queueingTime:vector.result-recording-modes all
config **.queue.queueingTime:vector.vector-recording true
config **.queue.queueBitLength:vector.result-recording-modes all
config **.queue.queueBitLength:vector.vector-recording true
config **.packetDropped:count.result-recording-modes all
config **.packetDropped:vector.result-recording-modes all
config **.packetDropped:vector.vector-recording true
config **.packetSent:count.result-recording-modes all
config **.packetReceived:count.result-recording-modes all
config **.rxPkOk:count.result-recording-modes all
config **.rxPkOk:vector.result-recording-modes all
config **.txPk:count.result-recording-modes all
config **.txPk:vector.result-recording-modes all
config **.bridging.streamFilter.ingress.meter[*].committedConformingPackets:count.result-recording-modes all
config **.bridging.streamFilter.ingress.meter[*].committedConformingPackets:vector.result-recording-modes all
config **.bridging.streamFilter.ingress.meter[*].committedConformingPackets:vector.vector-recording true
config **.bridging.streamFilter.ingress.meter[*].committedNonConformingPackets:count.result-recording-modes all
config **.bridging.streamFilter.ingress.meter[*].committedNonConformingPackets:vector.result-recording-modes all
config **.bridging.streamFilter.ingress.meter[*].committedNonConformingPackets:vector.vector-recording true
config **.bridging.streamFilter.ingress.meter[*].excessConformingPackets:count.result-recording-modes all
config **.bridging.streamFilter.ingress.meter[*].excessConformingPackets:vector.result-recording-modes all
config **.bridging.streamFilter.ingress.meter[*].excessConformingPackets:vector.vector-recording true
config **.bridging.streamFilter.ingress.meter[*].packetFiltered:count.result-recording-modes all
config **.bridging.streamFilter.ingress.meter[*].packetFiltered:vector.result-recording-modes all
config **.bridging.streamFilter.ingress.meter[*].packetFiltered:vector.vector-recording true
config **.bridging.streamCoder.packetEncoded:count.result-recording-modes all
config **.bridging.streamCoder.packetDecoded:count.result-recording-modes all
config **.bridging.streamIdentifier.packetClassified:count.result-recording-modes all
config **.bridging.streamIdentifier.packetClassified:vector.result-recording-modes all
config **.bridging.streamIdentifier.packetClassified:vector.vector-recording true
config **.queue.transmissionGate[*].gateStateChanged:vector.result-recording-modes all
config **.queue.transmissionGate[*].gateStateChanged:vector.vector-recording true
config **.queue.transmissionSelectionAlgorithm[*].credit:vector.result-recording-modes all
config **.queue.transmissionSelectionAlgorithm[*].credit:vector.vector-recording true
config **.gptp.clockServo.offsetNanoseconds:vector.result-recording-modes all
config **.gptp.clockServo.offsetNanoseconds:vector.vector-recording true
config **.gptp.clockServo.driftPpm:vector.result-recording-modes all
config **.gptp.clockServo.driftPpm:vector.vector-recording true
config **.gptp.clockServo.rateRatio:vector.result-recording-modes all
config **.gptp.clockServo.rateRatio:vector.vector-recording true
config **.mac.txPk:count.result-recording-modes all
config **.mac.rxPkOk:count.result-recording-modes all
config **.mac.frameSequenceErrors:count.result-recording-modes all
config **.mac.alignmentErrors:count.result-recording-modes all
config **.phy.txPk:count.result-recording-modes all
config **.phy.rxPkOk:count.result-recording-modes all
config **.phy.symbolErrors:count.result-recording-modes all
config **.ipv4.routingTable.routeAdded:count.result-recording-modes all
config **.ipv4.routingTable.routeDeleted:count.result-recording-modes all
config **.udp.packetSent:count.result-recording-modes all
config **.udp.packetReceived:count.result-recording-modes all
config **.udp.passedUpPk:count.result-recording-modes all
config **.pcp0:count.result-recording-modes all
config **.pcp1:count.result-recording-modes all
config **.pcp2:count.result-recording-modes all
config **.pcp3:count.result-recording-modes all
config **.pcp4:count.result-recording-modes all
config **.pcp5:count.result-recording-modes all
config **.pcp6:count.result-recording-modes all
config **.pcp7:count.result-recording-modes all
config *.attackerExternal.numApps 0
config *.compromisedNode.numApps 0
config *.visualizer.typename IntegratedCanvasVisualizer
config *.visualizer.dataLinkVisualizer.displayLinks true
config *.visualizer.dataLinkVisualizer.activityLevel "\"protocol\""
config *.visualizer.dataLinkVisualizer.fadeOutMode "\"simulationTime\""
config *.visualizer.dataLinkVisualizer.fadeOutTime 0.2s
config *.visualizer.statisticVisualizer.displayStatistics true
config *.visualizer.statisticVisualizer.signalName "\"packetReceived\""
config *.visualizer.statisticVisualizer.sourceFilter "\"**.app[*]\""
config *.visualizer.statisticVisualizer.format "\"count\""
config *.dataCollector.outputFile "\"results_flat/tsn_signals_Baseline-#3.csv\""
config *.dataCollector.windowLength 1ms
config *.dataCollector.emitCSV true
config *.dataCollector.emitPCPBreakdowns false
config *.dataCollector.emitRaw false
config *.dataCollector.emitNDJSON false
config *.dataCollector.emitPerStreamRows true
config *.dataCollector.includeControlFramesInThroughput true
config *.dataCollector.emitZeroIfNoSamples false
config *.mainECU.numApps 4
config *.mainECU.app[3].typename UdpBasicApp
config *.mainECU.app[3].localPort 6100
config *.mainECU.app[3].destAddresses "\"display\""
config *.mainECU.app[3].destPort 6000
config *.mainECU.app[3].messageLength 256B
config *.mainECU.app[3].sendInterval 2ms
config *.mainECU.app[3].startTime 10ms
config *.mainECU.app[3].stopTime 0.5s
config *.mlInferenceEngine.modelPath "\"../ml_models/tsn_extended_fdeep.json\""
config *.mlInferenceEngine.normPath "\"../ml_models/tsn_extended_norm.json\""
config *.mlInferenceEngine.inferenceInterval 1ms
config *.mlInferenceEngine.anomalyThreshold 0.7
config result-dir results_flat
config output-scalar-file results_flat/Baseline-3.sca
config output-vector-file results_flat/Baseline-3.vec
config **.result-recording-modes default
config **.vector-recording false
config **.scalar-recording false

vector 0 MinimalAttackNetwork.masterClock.clock.oscillator driftRateChanged:vector ETV
attr interpolationmode sample-hold
attr recordingmode vector
attr title "Oscillator drift rate"
attr unit ppm
vector 1 MinimalAttackNetwork.masterClock.clock timeChanged:vector ETV
attr interpolationmode linear
attr recordingmode vector
attr title "Clock time"
vector 2 MinimalAttackNetwork.masterClock.ethernet.macHeaderInserter incomingPacketLengths:vector ETV
attr interpolationmode none
attr recordingmode vector
attr source "packetLength(merge(packetPushedIn, packetPulledIn))"
attr title "incoming packet lengths"
attr unit b
vector 3 MinimalAttackNetwork.masterClock.ethernet.macHeaderInserter incomingDataRate:vector ETV
attr interpolationmode linear
attr recordingmode vector
attr source "throughput(merge(packetPushedIn, packetPulledIn))"
attr title "incoming data rate"
attr unit bps
vector 4 MinimalAttackNetwork.masterClock.ethernet.macHeaderInserter outgoingPacketLengths:vector ETV
attr interpolationmode none
attr recordingmode vector
attr source "packetLength(merge(packetPushedOut, packetPulledOut))"
attr title "outgoing packet lengths"
attr unit b
vector 5 MinimalAttackNetwork.masterClock.ethernet.macHeaderInserter outgoingDataRate:vector ETV
attr interpolationmode linear
attr recordingmode vector
attr source "throughput(merge(packetPushedOut, packetPulledOut))"
attr title "outgoing data rate"
attr unit bps
vector 6 MinimalAttackNetwork.masterClock.ethernet.macHeaderInserter flowIncomingPacketLengths:vector ETV
attr interpolationmode none
attr recordingmode vector
attr source "packetLength(demuxFlow(merge(packetPushedIn, packetPulledIn)))"
attr title "flow specific incoming packet lengths"
attr unit b
vector 7 MinimalAttackNetwork.masterClock.ethernet.macHeaderInserter flowIncomingDataRate:vector ETV
attr interpolationmode linear
attr recordingmode vector
attr source "throughput(demuxFlow(merge(packetPushedIn, packetPulledIn)))"
attr title "flow specific incoming data rate"
attr unit bps
vector 8 MinimalAttackNetwork.masterClock.ethernet.macHeaderInserter flowOutgoingPacketLengths:vector ETV
attr interpolationmode none
attr recordingmode vector
attr source "packetLength(demuxFlow(merge(packetPushedOut, packetPulledOut)))"
attr title "flow specific outgoing packet lengths"
attr unit b
vector 9 MinimalAttackNetwork.masterClock.ethernet.macHeaderInserter flowOutgoingDataRate:vector ETV
attr interpolationmode linear
attr recordingmode vector
attr source "throughput(demuxFlow(merge(packetPushedOut, packetPulledOut)))"
attr title "flow specific outgoing data rate"
attr unit bps
vector 10 MinimalAttackNetwork.masterClock.ethernet.paddingInserter incomingPacketLengths:vector ETV
attr interpolationmode none
attr recordingmode vector
attr source "packetLength(merge(packetPushedIn, packetPulledIn))"
attr title "incoming packet lengths"
attr unit b
vector 11 MinimalAttackNetwork.masterClock.ethernet.paddingInserter incomingDataRate:vector ETV
attr interpolationmode linear
attr recordingmode vector
attr source "throughput(merge(packetPushedIn, packetPulledIn))"
attr title "incoming data rate"
attr unit bps
vector 12 MinimalAttackNetwork.masterClock.ethernet.paddingInserter outgoingPacketLengths:vector ETV
attr interpolationmode none
attr recordingmode vector
attr source "packetLength(merge(packetPushedOut, packetPulledOut))"
attr title "outgoing packet lengths"
attr unit b
vector 13 MinimalAttackNetwork.masterClock.ethernet.paddingInserter outgoingDataRate:vector ETV
attr interpolationmode linear
attr recordingmode vector
attr source "throughput(merge(packetPushedOut, packetPulledOut))"
attr title "outgoing data rate"
attr unit bps
vector 14 MinimalAttackNetwork.masterClock.ethernet.paddingInserter flowIncomingPacketLengths:vector ETV
attr interpolationmode none
attr recordingmode vector
attr source "packetLength(demuxFlow(merge(packetPushedIn, packetPulledIn)))"
attr title "flow specific incoming packet lengths"
attr unit b
vector 15 MinimalAttackNetwork.masterClock.ethernet.paddingInserter flowIncomingDataRate:vector ETV
attr interpolationmode linear
attr recordingmode vector
attr source "throughput(demuxFlow(merge(packetPushedIn, packetPulledIn)))"
attr title "flow specific incoming data rate"
attr unit bps
vector 16 MinimalAttackNetwork.masterClock.ethernet.paddingInserter flowOutgoingPacketLengths:vector ETV
attr interpolationmode none
attr recordingmode vector
attr source "packetLength(demuxFlow(merge(packetPushedOut, packetPulledOut)))"
attr title "flow specific outgoing packet lengths"
attr unit b
vector 17 MinimalAttackNetwork.masterClock.ethernet.paddingInserter flowOutgoingDataRate:vector ETV
attr interpolationmode linear
attr recordingmode vector
attr source "throughput(demuxFlow(merge(packetPushedOut, packetPulledOut)))"
attr title "flow specific outgoing data rate"
attr unit bps
vector 18 MinimalAttackNetwork.masterClock.ethernet.fcsInserter incomingPacketLengths:vector ETV
attr interpolationmode none
attr recordingmode vector
attr source "packetLength(merge(packetPushedIn, packetPulledIn))"
attr title "incoming packet lengths"
attr unit b
vector 19 MinimalAttackNetwork.masterClock.ethernet.fcsInserter incomingDataRate:vector ETV
attr interpolationmode linear
attr recordingmode vector
attr source "throughput(merge(packetPushedIn, packetPulledIn))"
attr title "incoming data rate"
attr unit bps
vector 20 MinimalAttackNetwork.masterClock.ethernet.fcsInserter outgoingPacketLengths:vector ETV
attr interpolationmode none
attr recordingmode vector
attr source "packetLength(merge(packetPushedOut, packetPulledOut))"
attr title "outgoing packet lengths"
attr unit b
vector 21 MinimalAttackNetwork.masterClock.ethernet.fcsInserter outgoingDataRate:vector ETV
attr interpolationmode linear
attr recordingmode vector
attr source "throughput(merge(packetPushedOut, packetPulledOut))"
attr title "outgoing data rate"
attr unit bps
vector 22 MinimalAttackNetwork.masterClock.ethernet.fcsInserter flowIncomingPacketLengths:vector ETV
attr interpolationmode none
attr recordingmode vector
attr source "packetLength(demuxFlow(merge(packetPushedIn, packetPulledIn)))"
attr title "flow specific incoming packet lengths"
attr unit b
vector 23 MinimalAttackNetwork.masterClock.ethernet.fcsInserter flowIncomingDataRate:vector ETV
attr interpolationmode linear
attr recordingmode vector
attr source "throughput(demuxFlow(merge(packetPushedIn, packetPulledIn)))"
attr title "flow specific incoming data rate"
attr unit bps
vector 24 MinimalAttackNetwork.masterClock.ethernet.fcsInserter flowOutgoingPacketLengths:vector ETV
attr interpolationmode none
attr recordingmode vector
attr source "packetLength(demuxFlow(merge(packetPushedOut, packetPulledOut)))"
attr title "flow specific outgoing packet lengths"
attr unit b
vector 25 MinimalAttackNetwork.masterClock.ethernet.fcsInserter flowOutgoingDataRate:vector ETV
attr interpolationmode linear
attr recordingmode vector
attr source "throughput(demuxFlow(merge(packetPushedOut, packetPulledOut)))"
attr title "flow specific outgoing data rate"
attr unit bps
vector 26 MinimalAttackNetwork.masterClock.ethernet.macHeaderChecker incomingPacketLengths:vector ETV
attr interpolationmode none
attr recordingmode vector
attr source "packetLength(merge(packetPushedIn, packetPulledIn))"
attr title "incoming packet lengths"
attr unit b
vector 27 MinimalAttackNetwork.masterClock.ethernet.macHeaderChecker incomingDataRate:vector ETV
attr interpolationmode linear
attr recordingmode vector
attr source "throughput(merge(packetPushedIn, packetPulledIn))"
attr title "incoming data rate"
attr unit bps
vector 28 MinimalAttackNetwork.masterClock.ethernet.macHeaderChecker outgoingPacketLengths:vector ETV
attr interpolationmode none
attr recordingmode vector
attr source "packetLength(merge(packetPushedOut, packetPulledOut))"
attr title "outgoing packet lengths"
attr unit b
vector 29 MinimalAttackNetwork.masterClock.ethernet.macHeaderChecker outgoingDataRate:vector ETV
attr interpolationmode linear
attr recordingmode vector
attr source "throughput(merge(packetPushedOut, packetPulledOut))"
attr title "outgoing data rate"
attr unit bps
vector 30 MinimalAttackNetwork.masterClock.ethernet.macHeaderChecker droppedPacketLengths:vector ETV
attr interpolationmode none
attr recordingmode vector
attr source packetLength(packetDropped)
attr title "dropped packet lengths"
attr unit b
vector 31 MinimalAttackNetwork.masterClock.ethernet.macHeaderChecker droppedDataRate:vector ETV
attr interpolationmode linear
attr recordingmode vector
attr source throughput(packetDropped)
attr title "dropped data rate"
attr unit bps
vector 32 MinimalAttackNetwork.masterClock.ethernet.macHeaderChecker flowIncomingPacketLengths:vector ETV
attr interpolationmode none
attr recordingmode vector
attr source "packetLength(demuxFlow(merge(packetPushedIn, packetPulledIn)))"
attr title "flow specific incoming packet lengths"
attr unit b
vector 33 MinimalAttackNetwork.masterClock.ethernet.macHeaderChecker flowIncomingDataRate:vector ETV
attr interpolationmode linear
attr recordingmode vector
attr source "throughput(demuxFlow(merge(packetPushedIn, packetPulledIn)))"
attr title "flow specific incoming data rate"
attr unit bps
vector 34 MinimalAttackNetwork.masterClock.ethernet.macHeaderChecker flowOutgoingPacketLengths:vector ETV
attr interpolationmode none
attr recordingmode vector
attr source "packetLength(demuxFlow(merge(packetPushedOut, packetPulledOut)))"
attr title "flow specific outgoing packet lengths"
attr unit b
vector 35 MinimalAttackNetwork.masterClock.ethernet.macHeaderChecker flowOutgoingDataRate:vector ETV
attr interpolationmode linear
attr recordingmode vector
attr source "throughput(demuxFlow(merge(packetPushedOut, packetPulledOut)))"
attr title "flow specific outgoing data rate"
attr unit bps
vector 36 MinimalAttackNetwork.masterClock.ethernet.macHeaderChecker flowDroppedPacketLengths:vector ETV
attr interpolationmode none
attr recordingmode vector
attr source packetLength(demuxFlow(packetDropped))
attr title "flow specific dropped packet lengths"
attr unit b
vector 37 MinimalAttackNetwork.masterClock.ethernet.macHeaderChecker flowDroppedDataRate:vector ETV
attr interpolationmode linear
attr recordingmode vector
attr source throughput(demuxFlow(packetDropped))
attr title "flow specific dropped data rate"
attr unit bps
vector 38 MinimalAttackNetwork.masterClock.ethernet.fcsChecker incomingPacketLengths:vector ETV
attr interpolationmode none
attr recordingmode vector
attr source "packetLength(merge(packetPushedIn, packetPulledIn))"
attr title "incoming packet lengths"
attr unit b
vector 39 MinimalAttackNetwork.masterClock.ethernet.fcsChecker incomingDataRate:vector ETV
attr interpolationmode linear
attr recordingmode vector
attr source "throughput(merge(packetPushedIn, packetPulledIn))"
attr title "incoming data rate"
attr unit bps
vector 40 MinimalAttackNetwork.masterClock.ethernet.fcsChecker outgoingPacketLengths:vector ETV
attr interpolationmode none
attr recordingmode vector
attr source "packetLength(merge(packetPushedOut, packetPulledOut))"
attr title "outgoing packet lengths"
attr unit b
vector 41 MinimalAttackNetwork.masterClock.ethernet.fcsChecker outgoingDataRate:vector ETV
attr interpolationmode linear
attr recordingmode vector
attr source "throughput(merge(packetPushedOut, packetPulledOut))"
attr title "outgoing data rate"
attr unit bps
vector 42 MinimalAttackNetwork.masterClock.ethernet.fcsChecker droppedPacketLengths:vector ETV
attr interpolationmode none
attr recordingmode vector
attr source packetLength(packetDropped)
attr title "dropped packet lengths"
attr unit b
vector 43 MinimalAttackNetwork.masterClock.ethernet.fcsChecker droppedDataRate:vector ETV
attr interpolationmode linear
attr recordingmode vector
attr source throughput(packetDropped)
attr title "dropped data rate"
attr unit bps
vector 44 MinimalAttackNetwork.masterClock.ethernet.fcsChecker flowIncomingPacketLengths:vector ETV
attr interpolationmode none
attr recordingmode vector
attr source "packetLength(demuxFlow(merge(packetPushedIn, packetPulledIn)))"
attr title "flow specific incoming packet lengths"
attr unit b
vector 45 MinimalAttackNetwork.masterClock.ethernet.fcsChecker flowIncomingDataRate:vector ETV
attr interpolationmode linear
attr recordingmode vector
attr source "throughput(demuxFlow(merge(packetPushedIn, packetPulledIn)))"
attr title "flow specific incoming data rate"
attr unit bps
vector 46 MinimalAttackNetwork.masterClock.ethernet.fcsChecker flowOutgoingPacketLengths:vector ETV
attr interpolationmode none
attr recordingmode vector
attr source "packetLength(demuxFlow(merge(packetPushedOut, packetPulledOut)))"
attr title "flow specific outgoing packet lengths"
attr unit b
vector 47 MinimalAttackNetwork.masterClock.ethernet.fcsChecker flowOutgoingDataRate:vector ETV
attr interpolationmode linear
attr recordingmode vector
attr source "throughput(demuxFlow(merge(packetPushedOut, packetPulledOut)))"
attr title "flow specific outgoing data rate"
attr unit bps
vector 48 MinimalAttackNetwork.masterClock.ethernet.fcsChecker flowDroppedPacketLengths:vector ETV
attr interpolationmode none
attr recordingmode vector
attr source packetLength(demuxFlow(packetDropped))
attr title "flow specific dropped packet lengths"
attr unit b
vector 49 MinimalAttackNetwork.masterClock.ethernet.fcsChecker flowDroppedDataRate:vector ETV
attr interpolationmode linear
attr recordingmode vector
attr source throughput(demuxFlow(packetDropped))
attr title "flow specific dropped data rate"
attr unit bps
vector 50 MinimalAttackNetwork.masterClock.lo[0].lo rcvdPkFromHl:vector(packetBytes) ETV
attr interpolationmode none
attr recordingmode vector(packetBytes)
attr source packetReceivedFromUpper
attr title "packets received from higher layer, packetBytes"
vector 51 MinimalAttackNetwork.masterClock.lo[0].lo passedUpPk:vector(packetBytes) ETV
attr interpolationmode none
attr recordingmode vector(packetBytes)
attr source packetSentToUpper
attr title "packets passed to higher layer, packetBytes"
vector 52 MinimalAttackNetwork.masterClock.lo[0] packetDropInterfaceDown:vector(packetBytes) ETV
attr interpolationmode none
attr recordingmode vector(packetBytes)
attr source packetDropReasonIsInterfaceDown(packetDropped)
attr title "packet drops: interface down, packetBytes"
vector 53 MinimalAttackNetwork.masterClock.lo[0] packetDropNoCarrier:vector(packetBytes) ETV
attr interpolationmode none
attr recordingmode vector(packetBytes)
attr source packetDropReasonIsNoCarrier(packetDropped)
attr title "packet drops: no carrier, packetBytes"
vector 54 MinimalAttackNetwork.masterClock.eth[0].macLayer.queue queueLength:vector ETV
attr autoWarmupFilter false
attr interpolationmode sample-hold
attr recordingmode vector
attr source "warmup(atomic(constant0(packetPushEnded) + count(packetPushStarted) - count(packetPulled) - count(packetRemoved) - count(packetDropped)))"
attr title "queue length"
attr unit pk
vector 55 MinimalAttackNetwork.masterClock.eth[0].macLayer.queue queueBitLength:vector ETV
attr autoWarmupFilter false
attr interpolationmode sample-hold
attr recordingmode vector
attr source "warmup(atomic(constant0(packetPushEnded) + sum(packetLength(packetPushStarted)) - sum(packetLength(packetPulled)) - sum(packetLength(packetRemoved)) - sum(packetLength(packetDropped))))"
attr title "queue bit length"
attr unit b
vector 56 MinimalAttackNetwork.masterClock.eth[0].macLayer.queue queueingTime:vector ETV
attr interpolationmode none
attr recordingmode vector
attr source queueingTime(packetPulled)
attr title "queueing times"
attr unit s
vector 57 MinimalAttackNetwork.masterClock.eth[0].macLayer.queue incomingPacketLengths:vector ETV
attr interpolationmode none
attr recordingmode vector
attr source packetLength(packetPushStarted)
attr title "incoming packet lengths"
attr unit b
vector 58 MinimalAttackNetwork.masterClock.eth[0].macLayer.queue incomingDataRate:vector ETV
attr interpolationmode linear
attr recordingmode vector
attr source throughput(packetPushStarted)
attr title "incoming datarate"
attr unit bps
vector 59 MinimalAttackNetwork.masterClock.eth[0].macLayer.queue outgoingPacketLengths:vector ETV
attr interpolationmode none
attr recordingmode vector
attr source packetLength(packetPulled)
attr title "outgoing packet lengths"
attr unit b
vector 60 MinimalAttackNetwork.masterClock.eth[0].macLayer.queue outgoingDataRate:vector ETV
attr interpolationmode linear
attr recordingmode vector
attr source throughput(packetPulled)
attr title "outgoing datarate"
attr unit bps
vector 61 MinimalAttackNetwork.masterClock.eth[0].macLayer.queue droppedPacketLengthsQueueOverflow:vector ETV
attr interpolationmode none
attr recordingmode vector
attr source packetLength(packetDropReasonIsQueueOverflow(packetDropped))
attr title "dropped packet lengths: queue overflow"
attr unit b
vector 62 MinimalAttackNetwork.masterClock.eth[0].macLayer.queue flowQueueingTime:vector ETV
attr interpolationmode none
attr recordingmode vector
attr source queueingTime(demuxFlow(packetPulled))
attr title "flow queueing times"
attr unit s
vector 63 MinimalAttackNetwork.masterClock.eth[0].macLayer.queue flowIncomingDataRate:vector ETV
attr interpolationmode linear
attr recordingmode vector
attr source throughput(flowPacketLength(demuxFlow(packetPushStarted)))
attr title "flow specific incoming data rate"
attr unit bps
vector 64 MinimalAttackNetwork.masterClock.eth[0].macLayer.queue flowOutgoingDataRate:vector ETV
attr interpolationmode linear
attr recordingmode vector
attr source throughput(flowPacketLength(demuxFlow(packetPulled)))
attr title "flow specific outgoing data rate"
attr unit bps
vector 65 MinimalAttackNetwork.masterClock.eth[0].macLayer.server incomingPacketLengths:vector ETV
attr interpolationmode none
attr recordingmode vector
attr source packetLength(packetPulled)
attr title "incoming packet lengths"
attr unit b
vector 66 MinimalAttackNetwork.masterClock.eth[0].macLayer.server incomingDataRate:vector ETV
attr interpolationmode linear
attr recordingmode vector
attr source throughput(packetPulled)
attr title "incoming datarate"
attr unit bps
vector 67 MinimalAttackNetwork.masterClock.eth[0].macLayer.server outgoingPacketLengths:vector ETV
attr interpolationmode none
attr recordingmode vector
attr source packetLength(packetPushed)
attr title "outgoing packet lengths"
attr unit b
vector 68 MinimalAttackNetwork.masterClock.eth[0].macLayer.server outgoingDataRate:vector ETV
attr interpolationmode linear
attr recordingmode vector
attr source throughput(packetPushed)
attr title "outgoing datarate"
attr unit bps
vector 69 MinimalAttackNetwork.masterClock.eth[0].macLayer.outboundEmitter incomingPacketLengths:vector ETV
attr interpolationmode none
attr recordingmode vector
attr source "packetLength(merge(packetPushedIn, packetPulledIn))"
attr title "incoming packet lengths"
attr unit b
vector 70 MinimalAttackNetwork.masterClock.eth[0].macLayer.outboundEmitter incomingDataRate:vector ETV
attr interpolationmode linear
attr recordingmode vector
attr source "throughput(merge(packetPushedIn, packetPulledIn))"
attr title "incoming data rate"
attr unit bps
vector 71 MinimalAttackNetwork.masterClock.eth[0].macLayer.outboundEmitter outgoingPacketLengths:vector ETV
attr interpolationmode none
attr recordingmode vector
attr source "packetLength(merge(packetPushedOut, packetPulledOut))"
attr title "outgoing packet lengths"
attr unit b
vector 72 MinimalAttackNetwork.masterClock.eth[0].macLayer.outboundEmitter outgoingDataRate:vector ETV
attr interpolationmode linear
attr recordingmode vector
attr source "throughput(merge(packetPushedOut, packetPulledOut))"
attr title "outgoing data rate"
attr unit bps
vector 73 MinimalAttackNetwork.masterClock.eth[0].macLayer.outboundEmitter flowIncomingPacketLengths:vector ETV
attr interpolationmode none
attr recordingmode vector
attr source "packetLength(demuxFlow(merge(packetPushedIn, packetPulledIn)))"
attr title "flow specific incoming packet lengths"
attr unit b
vector 74 MinimalAttackNetwork.masterClock.eth[0].macLayer.outboundEmitter flowIncomingDataRate:vector ETV
attr interpolationmode linear
attr recordingmode vector
attr source "throughput(demuxFlow(merge(packetPushedIn, packetPulledIn)))"
attr title "flow specific incoming data rate"
attr unit bps
vector 75 MinimalAttackNetwork.masterClock.eth[0].macLayer.outboundEmitter flowOutgoingPacketLengths:vector ETV
attr interpolationmode none
attr recordingmode vector
attr source "packetLength(demuxFlow(merge(packetPushedOut, packetPulledOut)))"
attr title "flow specific outgoing packet lengths"
attr unit b
vector 76 MinimalAttackNetwork.masterClock.eth[0].macLayer.outboundEmitter flowOutgoingDataRate:vector ETV
attr interpolationmode linear
attr recordingmode vector
attr source "throughput(demuxFlow(merge(packetPushedOut, packetPulledOut)))"
attr title "flow specific outgoing data rate"
attr unit bps
vector 77 MinimalAttackNetwork.masterClock.eth[0].macLayer.fcsChecker incomingPacketLengths:vector ETV
attr interpolationmode none
attr recordingmode vector
attr source "packetLength(merge(packetPushedIn, packetPulledIn))"
attr title "incoming packet lengths"
attr unit b
vector 78 MinimalAttackNetwork.masterClock.eth[0].macLayer.fcsChecker incomingDataRate:vector ETV
attr interpolationmode linear
attr recordingmode vector
attr source "throughput(merge(packetPushedIn, packetPulledIn))"
attr title "incoming data rate"
attr unit bps
vector 79 MinimalAttackNetwork.masterClock.eth[0].macLayer.fcsChecker outgoingPacketLengths:vector ETV
attr interpolationmode none
attr recordingmode vector
attr source "packetLength(merge(packetPushedOut, packetPulledOut))"
attr title "outgoing packet lengths"
attr unit b
vector 80 MinimalAttackNetwork.masterClock.eth[0].macLayer.fcsChecker outgoingDataRate:vector ETV
attr interpolationmode linear
attr recordingmode vector
attr source "throughput(merge(packetPushedOut, packetPulledOut))"
attr title "outgoing data rate"
attr unit bps
vector 81 MinimalAttackNetwork.masterClock.eth[0].macLayer.fcsChecker droppedPacketLengths:vector ETV
attr interpolationmode none
attr recordingmode vector
attr source packetLength(packetDropped)
attr title "dropped packet lengths"
attr unit b
vector 82 MinimalAttackNetwork.masterClock.eth[0].macLayer.fcsChecker droppedDataRate:vector ETV
attr interpolationmode linear
attr recordingmode vector
attr source throughput(packetDropped)
attr title "dropped data rate"
attr unit bps
vector 83 MinimalAttackNetwork.masterClock.eth[0].macLayer.fcsChecker flowIncomingPacketLengths:vector ETV
attr interpolationmode none
attr recordingmode vector
attr source "packetLength(demuxFlow(merge(packetPushedIn, packetPulledIn)))"
attr title "flow specific incoming packet lengths"
attr unit b
vector 84 MinimalAttackNetwork.masterClock.eth[0].macLayer.fcsChecker flowIncomingDataRate:vector ETV
attr interpolationmode linear
attr recordingmode vector
attr source "throughput(demuxFlow(merge(packetPushedIn, packetPulledIn)))"
attr title "flow specific incoming data rate"
attr unit bps
vector 85 MinimalAttackNetwork.masterClock.eth[0].macLayer.fcsChecker flowOutgoingPacketLengths:vector ETV
attr interpolationmode none
attr recordingmode vector
attr source "packetLength(demuxFlow(merge(packetPushedOut, packetPulledOut)))"
attr title "flow specific outgoing packet lengths"
attr unit b
vector 86 MinimalAttackNetwork.masterClock.eth[0].macLayer.fcsChecker flowOutgoingDataRate:vector ETV
attr interpolationmode linear
attr recordingmode vector
attr source "throughput(demuxFlow(merge(packetPushedOut, packetPulledOut)))"
attr title "flow specific outgoing data rate"
attr unit bps
vector 87 MinimalAttackNetwork.masterClock.eth[0].macLayer.fcsChecker flowDroppedPacketLengths:vector ETV
attr interpolationmode none
attr recordingmode vector
attr source packetLength(demuxFlow(packetDropped))
attr title "flow specific dropped packet lengths"
attr unit b
vector 88 MinimalAttackNetwork.masterClock.eth[0].macLayer.fcsChecker flowDroppedDataRate:vector ETV
attr interpolationmode linear
attr recordingmode vector
attr source throughput(demuxFlow(packetDropped))
attr title "flow specific dropped data rate"
attr unit bps
vector 89 MinimalAttackNetwork.masterClock.eth[0].macLayer.inboundEmitter incomingPacketLengths:vector ETV
attr interpolationmode none
attr recordingmode vector
attr source "packetLength(merge(packetPushedIn, packetPulledIn))"
attr title "incoming packet lengths"
attr unit b
vector 90 MinimalAttackNetwork.masterClock.eth[0].macLayer.inboundEmitter incomingDataRate:vector ETV
attr interpolationmode linear
attr recordingmode vector
attr source "throughput(merge(packetPushedIn, packetPulledIn))"
attr title "incoming data rate"
attr unit bps
vector 91 MinimalAttackNetwork.masterClock.eth[0].macLayer.inboundEmitter outgoingPacketLengths:vector ETV
attr interpolationmode none
attr recordingmode vector
attr source "packetLength(merge(packetPushedOut, packetPulledOut))"
attr title "outgoing packet lengths"
attr unit b
vector 92 MinimalAttackNetwork.masterClock.eth[0].macLayer.inboundEmitter outgoingDataRate:vector ETV
attr interpolationmode linear
attr recordingmode vector
attr source "throughput(merge(packetPushedOut, packetPulledOut))"
attr title "outgoing data rate"
attr unit bps
vector 93 MinimalAttackNetwork.masterClock.eth[0].macLayer.inboundEmitter flowIncomingPacketLengths:vector ETV
attr interpolationmode none
attr recordingmode vector
attr source "packetLength(demuxFlow(merge(packetPushedIn, packetPulledIn)))"
attr title "flow specific incoming packet lengths"
attr unit b
vector 94 MinimalAttackNetwork.masterClock.eth[0].macLayer.inboundEmitter flowIncomingDataRate:vector ETV
attr interpolationmode linear
attr recordingmode vector
attr source "throughput(demuxFlow(merge(packetPushedIn, packetPulledIn)))"
attr title "flow specific incoming data rate"
attr unit bps
vector 95 MinimalAttackNetwork.masterClock.eth[0].macLayer.inboundEmitter flowOutgoingPacketLengths:vector ETV
attr interpolationmode none
attr recordingmode vector
attr source "packetLength(demuxFlow(merge(packetPushedOut, packetPulledOut)))"
attr title "flow specific outgoing packet lengths"
attr unit b
vector 96 MinimalAttackNetwork.masterClock.eth[0].macLayer.inboundEmitter flowOutgoingDataRate:vector ETV
attr interpolationmode linear
attr recordingmode vector
attr source "throughput(demuxFlow(merge(packetPushedOut, packetPulledOut)))"
attr title "flow specific outgoing data rate"
attr unit bps
vector 97 MinimalAttackNetwork.masterClock.eth[0].phyLayer.phyHeaderInserter incomingPacketLengths:vector ETV
attr interpolationmode none
attr recordingmode vector
attr source "packetLength(merge(packetPushedIn, packetPulledIn))"
attr title "incoming packet lengths"
attr unit b
vector 98 MinimalAttackNetwork.masterClock.eth[0].phyLayer.phyHeaderInserter incomingDataRate:vector ETV
attr interpolationmode linear
attr recordingmode vector
attr source "throughput(merge(packetPushedIn, packetPulledIn))"
attr title "incoming data rate"
attr unit bps
vector 99 MinimalAttackNetwork.masterClock.eth[0].phyLayer.phyHeaderInserter outgoingPacketLengths:vector ETV
attr interpolationmode none
attr recordingmode vector
attr source "packetLength(merge(packetPushedOut, packetPulledOut))"
attr title "outgoing packet lengths"
attr unit b
vector 100 MinimalAttackNetwork.masterClock.eth[0].phyLayer.phyHeaderInserter outgoingDataRate:vector ETV
attr interpolationmode linear
attr recordingmode vector
attr source "throughput(merge(packetPushedOut, packetPulledOut))"
attr title "outgoing data rate"
attr unit bps
vector 101 MinimalAttackNetwork.masterClock.eth[0].phyLayer.phyHeaderInserter flowIncomingPacketLengths:vector ETV
attr interpolationmode none
attr recordingmode vector
attr source "packetLength(demuxFlow(merge(packetPushedIn, packetPulledIn)))"
attr title "flow specific incoming packet lengths"
attr unit b
vector 102 MinimalAttackNetwork.masterClock.eth[0].phyLayer.phyHeaderInserter flowIncomingDataRate:vector ETV
attr interpolationmode linear
attr recordingmode vector
attr source "throughput(demuxFlow(merge(packetPushedIn, packetPulledIn)))"
attr title "flow specific incoming data rate"
attr unit bps
vector 103 MinimalAttackNetwork.masterClock.eth[0].phyLayer.phyHeaderInserter flowOutgoingPacketLengths:vector ETV
attr interpolationmode none
attr recordingmode vector
attr source "packetLength(demuxFlow(merge(packetPushedOut, packetPulledOut)))"
attr title "flow specific outgoing packet lengths"
attr unit b
vector 104 MinimalAttackNetwork.masterClock.eth[0].phyLayer.phyHeaderInserter flowOutgoingDataRate:vector ETV
attr interpolationmode linear
attr recordingmode vector
attr source "throughput(demuxFlow(merge(packetPushedOut, packetPulledOut)))"
attr title "flow specific outgoing data rate"
attr unit bps
vector 105 MinimalAttackNetwork.masterClock.eth[0].phyLayer.interFrameGapInserter interpacketGap:vector ETV
attr interpolationmode sample-hold
attr recordingmode vector
attr source "count(interpacketGapStarted) - count(interpacketGapEnded)"
attr title "interpacket gap state"
attr type int
vector 106 MinimalAttackNetwork.masterClock.eth[0].phyLayer.outboundEmitter incomingPacketLengths:vector ETV
attr interpolationmode none
attr recordingmode vector
attr source "packetLength(merge(packetPushedIn, packetPulledIn))"
attr title "incoming packet lengths"
attr unit b
vector 107 MinimalAttackNetwork.masterClock.eth[0].phyLayer.outboundEmitter incomingDataRate:vector ETV
attr interpolationmode linear
attr recordingmode vector
attr source "throughput(merge(packetPushedIn, packetPulledIn))"
attr title "incoming data rate"
attr unit bps
vector 108 MinimalAttackNetwork.masterClock.eth[0].phyLayer.outboundEmitter outgoingPacketLengths:vector ETV
attr interpolationmode none
attr recordingmode vector
attr source "packetLength(merge(packetPushedOut, packetPulledOut))"
attr title "outgoing packet lengths"
attr unit b
vector 109 MinimalAttackNetwork.masterClock.eth[0].phyLayer.outboundEmitter outgoingDataRate:vector ETV
attr interpolationmode linear
attr recordingmode vector
attr source "throughput(merge(packetPushedOut, packetPulledOut))"
attr title "outgoing data rate"
attr unit bps
vector 110 MinimalAttackNetwork.masterClock.eth[0].phyLayer.outboundEmitter flowIncomingPacketLengths:vector ETV
attr interpolationmode none
attr recordingmode vector
attr source "packetLength(demuxFlow(merge(packetPushedIn, packetPulledIn)))"
attr title "flow specific incoming packet lengths"
attr unit b
vector 111 MinimalAttackNetwork.masterClock.eth[0].phyLayer.outboundEmitter flowIncomingDataRate:vector ETV
attr interpolationmode linear
attr recordingmode vector
attr source "throughput(demuxFlow(merge(packetPushedIn, packetPulledIn)))"
attr title "flow specific incoming data rate"
attr unit bps
vector 112 MinimalAttackNetwork.masterClock.eth[0].phyLayer.outboundEmitter flowOutgoingPacketLengths:vector ETV
attr interpolationmode none
attr recordingmode vector
attr source "packetLength(demuxFlow(merge(packetPushedOut, packetPulledOut)))"
attr title "flow specific outgoing packet lengths"
attr unit b
vector 113 MinimalAttackNetwork.masterClock.eth[0].phyLayer.outboundEmitter flowOutgoingDataRate:vector ETV
attr interpolationmode linear
attr recordingmode vector
attr source "throughput(demuxFlow(merge(packetPushedOut, packetPulledOut)))"
attr title "flow specific outgoing data rate"
attr unit bps
vector 114 MinimalAttackNetwork.masterClock.eth[0].phyLayer.transmitter transmitting:vector ETV
attr interpolationmode sample-hold
attr recordingmode vector
attr source "count(transmissionStarted) - count(transmissionEnded)"
attr title "transmitting state"
attr type int
vector 115 MinimalAttackNetwork.masterClock.eth[0].phyLayer.transmitter throughput:vector ETV
attr interpolationmode linear
attr recordingmode vector
attr source throughput(transmissionEnded)
attr title throughput
attr unit bps
vector 116 MinimalAttackNetwork.masterClock.eth[0].phyLayer.transmitter utilization:vector ETV
attr interpolationmode linear
attr recordingmode vector
attr source "100 * utilization(count(transmissionStarted) - count(transmissionEnded))"
attr title utilization
attr unit %
vector 117 MinimalAttackNetwork.masterClock.eth[0].phyLayer.transmitter transmissionTime:vector ETV
attr interpolationmode none
attr recordingmode vector
attr source packetDuration(transmissionEnded)
attr title "transmission time"
attr unit s
vector 118 MinimalAttackNetwork.masterClock.eth[0].phyLayer.transmitter flowTransmissionTime:vector ETV
attr interpolationmode none
attr recordingmode vector
attr source packetDuration(demuxFlow(transmissionEnded))
attr title "flow transmission time"
attr unit s
vector 119 MinimalAttackNetwork.masterClock.eth[0].phyLayer.phyHeaderChecker incomingPacketLengths:vector ETV
attr interpolationmode none
attr recordingmode vector
attr source "packetLength(merge(packetPushedIn, packetPulledIn))"
attr title "incoming packet lengths"
attr unit b
vector 120 MinimalAttackNetwork.masterClock.eth[0].phyLayer.phyHeaderChecker incomingDataRate:vector ETV
attr interpolationmode linear
attr recordingmode vector
attr source "throughput(merge(packetPushedIn, packetPulledIn))"
attr title "incoming data rate"
attr unit bps
vector 121 MinimalAttackNetwork.masterClock.eth[0].phyLayer.phyHeaderChecker outgoingPacketLengths:vector ETV
attr interpolationmode none
attr recordingmode vector
attr source "packetLength(merge(packetPushedOut, packetPulledOut))"
attr title "outgoing packet lengths"
attr unit b
vector 122 MinimalAttackNetwork.masterClock.eth[0].phyLayer.phyHeaderChecker outgoingDataRate:vector ETV
attr interpolationmode linear
attr recordingmode vector
attr source "throughput(merge(packetPushedOut, packetPulledOut))"
attr title "outgoing data rate"
attr unit bps
vector 123 MinimalAttackNetwork.masterClock.eth[0].phyLayer.phyHeaderChecker droppedPacketLengths:vector ETV
attr interpolationmode none
attr recordingmode vector
attr source packetLength(packetDropped)
attr title "dropped packet lengths"
attr unit b
vector 124 MinimalAttackNetwork.masterClock.eth[0].phyLayer.phyHeaderChecker droppedDataRate:vector ETV
attr interpolationmode linear
attr recordingmode vector
attr source throughput(packetDropped)
attr title "dropped data rate"
attr unit bps
vector 125 MinimalAttackNetwork.masterClock.eth[0].phyLayer.phyHeaderChecker flowIncomingPacketLengths:vector ETV
attr interpolationmode none
attr recordingmode vector
attr source "packetLength(demuxFlow(merge(packetPushedIn, packetPulledIn)))"
attr title "flow specific incoming packet lengths"
attr unit b
vector 126 MinimalAttackNetwork.masterClock.eth[0].phyLayer.phyHeaderChecker flowIncomingDataRate:vector ETV
attr interpolationmode linear
attr recordingmode vector
attr source "throughput(demuxFlow(merge(packetPushedIn, packetPulledIn)))"
attr title "flow specific incoming data rate"
attr unit bps
vector 127 MinimalAttackNetwork.masterClock.eth[0].phyLayer.phyHeaderChecker flowOutgoingPacketLengths:vector ETV
attr interpolationmode none
attr recordingmode vector
attr source "packetLength(demuxFlow(merge(packetPushedOut, packetPulledOut)))"
attr title "flow specific outgoing packet lengths"
attr unit b
vector 128 MinimalAttackNetwork.masterClock.eth[0].phyLayer.phyHeaderChecker flowOutgoingDataRate:vector ETV
attr interpolationmode linear
attr recordingmode vector
attr source "throughput(demuxFlow(merge(packetPushedOut, packetPulledOut)))"
attr title "flow specific outgoing data rate"
attr unit bps
vector 129 MinimalAttackNetwork.masterClock.eth[0].phyLayer.phyHeaderChecker flowDroppedPacketLengths:vector ETV
attr interpolationmode none
attr recordingmode vector
attr source packetLength(demuxFlow(packetDropped))
attr title "flow specific dropped packet lengths"
attr unit b
vector 130 MinimalAttackNetwork.masterClock.eth[0].phyLayer.phyHeaderChecker flowDroppedDataRate:vector ETV
attr interpolationmode linear
attr recordingmode vector
attr source throughput(demuxFlow(packetDropped))
attr title "flow specific dropped data rate"
attr unit bps
vector 131 MinimalAttackNetwork.masterClock.eth[0].phyLayer.inboundEmitter incomingPacketLengths:vector ETV
attr interpolationmode none
attr recordingmode vector
attr source "packetLength(merge(packetPushedIn, packetPulledIn))"
attr title "incoming packet lengths"
attr unit b
vector 132 MinimalAttackNetwork.masterClock.eth[0].phyLayer.inboundEmitter incomingDataRate:vector ETV
attr interpolationmode linear
attr recordingmode vector
attr source "throughput(merge(packetPushedIn, packetPulledIn))"
attr title "incoming data rate"
attr unit bps
vector 133 MinimalAttackNetwork.masterClock.eth[0].phyLayer.inboundEmitter outgoingPacketLengths:vector ETV
attr interpolationmode none
attr recordingmode vector
attr source "packetLength(merge(packetPushedOut, packetPulledOut))"
attr title "outgoing packet lengths"
attr unit b
vector 134 MinimalAttackNetwork.masterClock.eth[0].phyLayer.inboundEmitter outgoingDataRate:vector ETV
attr interpolationmode linear
attr recordingmode vector
attr source "throughput(merge(packetPushedOut, packetPulledOut))"
attr title "outgoing data rate"
attr unit bps
vector 135 MinimalAttackNetwork.masterClock.eth[0].phyLayer.inboundEmitter flowIncomingPacketLengths:vector ETV
attr interpolationmode none
attr recordingmode vector
attr source "packetLength(demuxFlow(merge(packetPushedIn, packetPulledIn)))"
attr title "flow specific incoming packet lengths"
attr unit b
vector 136 MinimalAttackNetwork.masterClock.eth[0].phyLayer.inboundEmitter flowIncomingDataRate:vector ETV
attr interpolationmode linear
attr recordingmode vector
attr source "throughput(demuxFlow(merge(packetPushedIn, packetPulledIn)))"
attr title "flow specific incoming data rate"
attr unit bps
vector 137 MinimalAttackNetwork.masterClock.eth[0].phyLayer.inboundEmitter flowOutgoingPacketLengths:vector ETV
attr interpolationmode none
attr recordingmode vector
attr source "packetLength(demuxFlow(merge(packetPushedOut, packetPulledOut)))"
attr title "flow specific outgoing packet lengths"
attr unit b
vector 138 MinimalAttackNetwork.masterClock.eth[0].phyLayer.inboundEmitter flowOutgoingDataRate:vector ETV
attr interpolationmode linear
attr recordingmode vector
attr source "throughput(demuxFlow(merge(packetPushedOut, packetPulledOut)))"
attr title "flow specific outgoing data rate"
attr unit bps
vector 139 MinimalAttackNetwork.masterClock.eth[0].phyLayer.receiver throughput:vector ETV
attr interpolationmode linear
attr recordingmode vector
attr source throughput(receptionEnded)
attr title throughput
attr unit bps
vector 140 MinimalAttackNetwork.masterClock.eth[0].phyLayer.receiver receptionTime:vector ETV
attr interpolationmode none
attr recordingmode vector
attr source packetDuration(receptionEnded)
attr title "reception time"
attr unit s
vector 141 MinimalAttackNetwork.masterClock.eth[0].phyLayer.receiver flowReceptionTime:vector ETV
attr interpolationmode none
attr recordingmode vector
attr source packetDuration(demuxFlow(receptionEnded))
attr title "flow reception time"
attr unit s
vector 142 MinimalAttackNetwork.masterClock.eth[0] packetDropInterfaceDown:vector(packetBytes) ETV
attr interpolationmode none
attr recordingmode vector(packetBytes)
attr source packetDropReasonIsInterfaceDown(packetDropped)
attr title "packet drops: interface down, packetBytes"
vector 143 MinimalAttackNetwork.masterClock.eth[0] packetDropNoCarrier:vector(packetBytes) ETV
attr interpolationmode none
attr recordingmode vector(packetBytes)
attr source packetDropReasonIsNoCarrier(packetDropped)
attr title "packet drops: no carrier, packetBytes"
vector 144 MinimalAttackNetwork.masterClock.ipv4.ip packetDropAddressResolutionFailed:vector(packetBytes) ETV
attr interpolationmode none
attr recordingmode vector(packetBytes)
attr source packetDropReasonIsAddressResolutionFailed(packetDropped)
attr title "packet drop: address resolution failed, packetBytes"
vector 145 MinimalAttackNetwork.masterClock.ipv4.ip packetDropHopLimitReached:vector(packetBytes) ETV
attr interpolationmode none
attr recordingmode vector(packetBytes)
attr source packetDropReasonIsHopLimitReached(packetDropped)
attr title "packet drop: hop limit reached, packetBytes"
vector 146 MinimalAttackNetwork.masterClock.ipv4.ip packetDropForwardingDisabled:vector(packetBytes) ETV
attr interpolationmode none
attr recordingmode vector(packetBytes)
attr source packetDropReasonIsForwardingDisabled(packetDropped)
attr title "packet drop: forwarding disabled, packetBytes"
vector 147 MinimalAttackNetwork.masterClock.ipv4.ip packetDropNoInterfaceFound:vector(packetBytes) ETV
attr interpolationmode none
attr recordingmode vector(packetBytes)
attr source packetDropReasonIsNoInterfaceFound(packetDropped)
attr title "packet drop: no interface found, packetBytes"
vector 148 MinimalAttackNetwork.masterClock.ipv4.ip packetDropNoRouteFound:vector(packetBytes) ETV
attr interpolationmode none
attr recordingmode vector(packetBytes)
attr source packetDropReasonIsNoRouteFound(packetDropped)
attr title "packet drop: no route found, packetBytes"
vector 149 MinimalAttackNetwork.masterClock.ipv4.ip packetDropUndefined:vector(packetBytes) ETV
attr interpolationmode none
attr recordingmode vector(packetBytes)
attr source packetDropReasonIsUndefined(packetDropped)
attr title "packet drop: undefined, packetBytes"
vector 150 MinimalAttackNetwork.masterClock.udp packetSent:vector(packetBytes) ETV
attr interpolationmode none
attr recordingmode vector(packetBytes)
attr source packetSent
attr title "packets sent, packetBytes"
vector 151 MinimalAttackNetwork.masterClock.udp packetReceived:vector(packetBytes) ETV
attr interpolationmode none
attr recordingmode vector(packetBytes)
attr source packetReceived
attr title "packets received, packetBytes"
vector 152 MinimalAttackNetwork.masterClock.udp passedUpPk:vector(count) ETV
attr interpolationmode none
attr recordingmode vector(count)
attr source packetSentToUpper
attr title "packets passed up, count"
vector 153 MinimalAttackNetwork.masterClock.udp droppedPkWrongPort:vector(count) ETV
attr interpolationmode none
attr recordingmode vector(count)
attr source packetDropReasonIsNoPortFound(packetDropped)
attr title "packets dropped (wrong port), count"
vector 154 MinimalAttackNetwork.masterClock.udp droppedPkBadChecksum:vector(count) ETV
attr interpolationmode none
attr recordingmode vector(count)
attr source packetDropReasonIsIncorrectlyReceived(packetDropped)
attr title "packets dropped (checksum error), count"
vector 155 MinimalAttackNetwork.masterClock.gptp localTime:vector ETV
attr interpolationmode linear
attr recordingmode vector
vector 156 MinimalAttackNetwork.masterClock.gptp timeDifference:vector ETV
attr interpolationmode linear
attr recordingmode vector
vector 157 MinimalAttackNetwork.masterClock.gptp rateRatio:vector ETV
attr interpolationmode sample-hold
attr recordingmode vector
vector 158 MinimalAttackNetwork.masterClock.gptp peerDelay:vector ETV
attr interpolationmode sample-hold
attr recordingmode vector
vector 159 MinimalAttackNetwork.masterClock.gptp packetDropNotAddressedToUs:vector(packetBytes) ETV
attr interpolationmode none
attr recordingmode vector(packetBytes)
attr source packetDropReasonIsNotAddressedToUs(packetDropped)
attr title "packet drop: not addressed to us, packetBytes"
vector 160 MinimalAttackNetwork.centralSwitch.clock.oscillator driftRateChanged:vector ETV
attr interpolationmode sample-hold
attr recordingmode vector
attr title "Oscillator drift rate"
attr unit ppm
vector 161 MinimalAttackNetwork.centralSwitch.clock timeChanged:vector ETV
attr interpolationmode linear
attr recordingmode vector
attr title "Clock time"
vector 162 MinimalAttackNetwork.centralSwitch.gptp localTime:vector ETV
attr interpolationmode linear
attr recordingmode vector
vector 163 MinimalAttackNetwork.centralSwitch.gptp timeDifference:vector ETV
attr interpolationmode linear
attr recordingmode vector
vector 164 MinimalAttackNetwork.centralSwitch.gptp rateRatio:vector ETV
attr interpolationmode sample-hold
attr recordingmode vector
vector 165 MinimalAttackNetwork.centralSwitch.gptp peerDelay:vector ETV
attr interpolationmode sample-hold
attr recordingmode vector
vector 166 MinimalAttackNetwork.centralSwitch.gptp packetDropNotAddressedToUs:vector(packetBytes) ETV
attr interpolationmode none
attr recordingmode vector(packetBytes)
attr source packetDropReasonIsNotAddressedToUs(packetDropped)
attr title "packet drop: not addressed to us, packetBytes"
vector 167 MinimalAttackNetwork.centralSwitch.bridging.directionReverser.reverser incomingPacketLengths:vector ETV
attr interpolationmode none
attr recordingmode vector
attr source "packetLength(merge(packetPushedIn, packetPulledIn))"
attr title "incoming packet lengths"
attr unit b
vector 168 MinimalAttackNetwork.centralSwitch.bridging.directionReverser.reverser incomingDataRate:vector ETV
attr interpolationmode linear
attr recordingmode vector
attr source "throughput(merge(packetPushedIn, packetPulledIn))"
attr title "incoming data rate"
attr unit bps
vector 169 MinimalAttackNetwork.centralSwitch.bridging.directionReverser.reverser outgoingPacketLengths:vector ETV
attr interpolationmode none
attr recordingmode vector
attr source "packetLength(merge(packetPushedOut, packetPulledOut))"
attr title "outgoing packet lengths"
attr unit b
vector 170 MinimalAttackNetwork.centralSwitch.bridging.directionReverser.reverser outgoingDataRate:vector ETV
attr interpolationmode linear
attr recordingmode vector
attr source "throughput(merge(packetPushedOut, packetPulledOut))"
attr title "outgoing data rate"
attr unit bps
vector 171 MinimalAttackNetwork.centralSwitch.bridging.directionReverser.reverser flowIncomingPacketLengths:vector ETV
attr interpolationmode none
attr recordingmode vector
attr source "packetLength(demuxFlow(merge(packetPushedIn, packetPulledIn)))"
attr title "flow specific incoming packet lengths"
attr unit b
vector 172 MinimalAttackNetwork.centralSwitch.bridging.directionReverser.reverser flowIncomingDataRate:vector ETV
attr interpolationmode linear
attr recordingmode vector
attr source "throughput(demuxFlow(merge(packetPushedIn, packetPulledIn)))"
attr title "flow specific incoming data rate"
attr unit bps
vector 173 MinimalAttackNetwork.centralSwitch.bridging.directionReverser.reverser flowOutgoingPacketLengths:vector ETV
attr interpolationmode none
attr recordingmode vector
attr source "packetLength(demuxFlow(merge(packetPushedOut, packetPulledOut)))"
attr title "flow specific outgoing packet lengths"
attr unit b
vector 174 MinimalAttackNetwork.centralSwitch.bridging.directionReverser.reverser flowOutgoingDataRate:vector ETV
attr interpolationmode linear
attr recordingmode vector
attr source "throughput(demuxFlow(merge(packetPushedOut, packetPulledOut)))"
attr title "flow specific outgoing data rate"
attr unit bps
vector 175 MinimalAttackNetwork.centralSwitch.bridging.directionReverser.join packetLengths:vector ETV
attr interpolationmode none
attr recordingmode vector
attr source "packetLength(merge(packetPushed, packetPulled))"
attr title "packet lengths"
attr unit b
vector 176 MinimalAttackNetwork.centralSwitch.bridging.directionReverser.join dataRate:vector ETV
attr interpolationmode linear
attr recordingmode vector
attr source "throughput(merge(packetPushed, packetPulled))"
attr title "data rate"
attr unit bps
vector 177 MinimalAttackNetwork.centralSwitch.bridging.streamIdentifier.identifier incomingPacketLengths:vector ETV
attr interpolationmode none
attr recordingmode vector
attr source "packetLength(merge(packetPushedIn, packetPulledIn))"
attr title "incoming packet lengths"
attr unit b
vector 178 MinimalAttackNetwork.centralSwitch.bridging.streamIdentifier.identifier incomingDataRate:vector ETV
attr interpolationmode linear
attr recordingmode vector
attr source "throughput(merge(packetPushedIn, packetPulledIn))"
attr title "incoming data rate"
attr unit bps
vector 179 MinimalAttackNetwork.centralSwitch.bridging.streamIdentifier.identifier outgoingPacketLengths:vector ETV
attr interpolationmode none
attr recordingmode vector
attr source "packetLength(merge(packetPushedOut, packetPulledOut))"
attr title "outgoing packet lengths"
attr unit b
vector 180 MinimalAttackNetwork.centralSwitch.bridging.streamIdentifier.identifier outgoingDataRate:vector ETV
attr interpolationmode linear
attr recordingmode vector
attr source "throughput(merge(packetPushedOut, packetPulledOut))"
attr title "outgoing data rate"
attr unit bps
vector 181 MinimalAttackNetwork.centralSwitch.bridging.streamIdentifier.identifier flowIncomingPacketLengths:vector ETV
attr interpolationmode none
attr recordingmode vector
attr source "packetLength(demuxFlow(merge(packetPushedIn, packetPulledIn)))"
attr title "flow specific incoming packet lengths"
attr unit b
vector 182 MinimalAttackNetwork.centralSwitch.bridging.streamIdentifier.identifier flowIncomingDataRate:vector ETV
attr interpolationmode linear
attr recordingmode vector
attr source "throughput(demuxFlow(merge(packetPushedIn, packetPulledIn)))"
attr title "flow specific incoming data rate"
attr unit bps
vector 183 MinimalAttackNetwork.centralSwitch.bridging.streamIdentifier.identifier flowOutgoingPacketLengths:vector ETV
attr interpolationmode none
attr recordingmode vector
attr source "packetLength(demuxFlow(merge(packetPushedOut, packetPulledOut)))"
attr title "flow specific outgoing packet lengths"
attr unit b
vector 184 MinimalAttackNetwork.centralSwitch.bridging.streamIdentifier.identifier flowOutgoingDataRate:vector ETV
attr interpolationmode linear
attr recordingmode vector
attr source "throughput(demuxFlow(merge(packetPushedOut, packetPulledOut)))"
attr title "flow specific outgoing data rate"
attr unit bps
vector 185 MinimalAttackNetwork.centralSwitch.bridging.streamFilter.ingress.classifier packetLengths:vector ETV
attr interpolationmode none
attr recordingmode vector
attr source packetLength(packetPushed)
attr title "packet lengths"
attr unit b
vector 186 MinimalAttackNetwork.centralSwitch.bridging.streamFilter.ingress.classifier dataRate:vector ETV
attr interpolationmode linear
attr recordingmode vector
attr source throughput(packetPushed)
attr title "data rate"
attr unit bps
vector 187 MinimalAttackNetwork.centralSwitch.bridging.streamFilter.ingress.gate[0] incomingPacketLengths:vector ETV
attr interpolationmode none
attr recordingmode vector
attr source "packetLength(merge(packetPushedIn, packetPulledIn))"
attr title "incoming packet lengths"
attr unit b
vector 188 MinimalAttackNetwork.centralSwitch.bridging.streamFilter.ingress.gate[0] incomingDataRate:vector ETV
attr interpolationmode linear
attr recordingmode vector
attr source "throughput(merge(packetPushedIn, packetPulledIn))"
attr title "incoming data rate"
attr unit bps
vector 189 MinimalAttackNetwork.centralSwitch.bridging.streamFilter.ingress.gate[0] outgoingPacketLengths:vector ETV
attr interpolationmode none
attr recordingmode vector
attr source "packetLength(merge(packetPushedOut, packetPulledOut))"
attr title "outgoing packet lengths"
attr unit b
vector 190 MinimalAttackNetwork.centralSwitch.bridging.streamFilter.ingress.gate[0] outgoingDataRate:vector ETV
attr interpolationmode linear
attr recordingmode vector
attr source "throughput(merge(packetPushedOut, packetPulledOut))"
attr title "outgoing data rate"
attr unit bps
vector 191 MinimalAttackNetwork.centralSwitch.bridging.streamFilter.ingress.gate[0] flowIncomingPacketLengths:vector ETV
attr interpolationmode none
attr recordingmode vector
attr source "packetLength(demuxFlow(merge(packetPushedIn, packetPulledIn)))"
attr title "flow specific incoming packet lengths"
attr unit b
vector 192 MinimalAttackNetwork.centralSwitch.bridging.streamFilter.ingress.gate[0] flowIncomingDataRate:vector ETV
attr interpolationmode linear
attr recordingmode vector
attr source "throughput(demuxFlow(merge(packetPushedIn, packetPulledIn)))"
attr title "flow specific incoming data rate"
attr unit bps
vector 193 MinimalAttackNetwork.centralSwitch.bridging.streamFilter.ingress.gate[0] flowOutgoingPacketLengths:vector ETV
attr interpolationmode none
attr recordingmode vector
attr source "packetLength(demuxFlow(merge(packetPushedOut, packetPulledOut)))"
attr title "flow specific outgoing packet lengths"
attr unit b
vector 194 MinimalAttackNetwork.centralSwitch.bridging.streamFilter.ingress.gate[0] flowOutgoingDataRate:vector ETV
attr interpolationmode linear
attr recordingmode vector
attr source "throughput(demuxFlow(merge(packetPushedOut, packetPulledOut)))"
attr title "flow specific outgoing data rate"
attr unit bps
vector 195 MinimalAttackNetwork.centralSwitch.bridging.streamFilter.ingress.gate[0] gateState:vector ETV
attr enum CLOSED,OPEN
attr interpolationmode sample-hold
attr recordingmode vector
attr source gateStateChanged
attr title "gate state"
attr type enum
vector 196 MinimalAttackNetwork.centralSwitch.bridging.streamFilter.ingress.gate[1] incomingPacketLengths:vector ETV
attr interpolationmode none
attr recordingmode vector
attr source "packetLength(merge(packetPushedIn, packetPulledIn))"
attr title "incoming packet lengths"
attr unit b
vector 197 MinimalAttackNetwork.centralSwitch.bridging.streamFilter.ingress.gate[1] incomingDataRate:vector ETV
attr interpolationmode linear
attr recordingmode vector
attr source "throughput(merge(packetPushedIn, packetPulledIn))"
attr title "incoming data rate"
attr unit bps
vector 198 MinimalAttackNetwork.centralSwitch.bridging.streamFilter.ingress.gate[1] outgoingPacketLengths:vector ETV
attr interpolationmode none
attr recordingmode vector
attr source "packetLength(merge(packetPushedOut, packetPulledOut))"
attr title "outgoing packet lengths"
attr unit b
vector 199 MinimalAttackNetwork.centralSwitch.bridging.streamFilter.ingress.gate[1] outgoingDataRate:vector ETV
attr interpolationmode linear
attr recordingmode vector
attr source "throughput(merge(packetPushedOut, packetPulledOut))"
attr title "outgoing data rate"
attr unit bps
vector 200 MinimalAttackNetwork.centralSwitch.bridging.streamFilter.ingress.gate[1] flowIncomingPacketLengths:vector ETV
attr interpolationmode none
attr recordingmode vector
attr source "packetLength(demuxFlow(merge(packetPushedIn, packetPulledIn)))"
attr title "flow specific incoming packet lengths"
attr unit b
vector 201 MinimalAttackNetwork.centralSwitch.bridging.streamFilter.ingress.gate[1] flowIncomingDataRate:vector ETV
attr interpolationmode linear
attr recordingmode vector
attr source "throughput(demuxFlow(merge(packetPushedIn, packetPulledIn)))"
attr title "flow specific incoming data rate"
attr unit bps
vector 202 MinimalAttackNetwork.centralSwitch.bridging.streamFilter.ingress.gate[1] flowOutgoingPacketLengths:vector ETV
attr interpolationmode none
attr recordingmode vector
attr source "packetLength(demuxFlow(merge(packetPushedOut, packetPulledOut)))"
attr title "flow specific outgoing packet lengths"
attr unit b
vector 203 MinimalAttackNetwork.centralSwitch.bridging.streamFilter.ingress.gate[1] flowOutgoingDataRate:vector ETV
attr interpolationmode linear
attr recordingmode vector
attr source "throughput(demuxFlow(merge(packetPushedOut, packetPulledOut)))"
attr title "flow specific outgoing data rate"
attr unit bps
vector 204 MinimalAttackNetwork.centralSwitch.bridging.streamFilter.ingress.gate[1] gateState:vector ETV
attr enum CLOSED,OPEN
attr interpolationmode sample-hold
attr recordingmode vector
attr source gateStateChanged
attr title "gate state"
attr type enum
vector 205 MinimalAttackNetwork.centralSwitch.bridging.streamFilter.ingress.gate[2] incomingPacketLengths:vector ETV
attr interpolationmode none
attr recordingmode vector
attr source "packetLength(merge(packetPushedIn, packetPulledIn))"
attr title "incoming packet lengths"
attr unit b
vector 206 MinimalAttackNetwork.centralSwitch.bridging.streamFilter.ingress.gate[2] incomingDataRate:vector ETV
attr interpolationmode linear
attr recordingmode vector
attr source "throughput(merge(packetPushedIn, packetPulledIn))"
attr title "incoming data rate"
attr unit bps
vector 207 MinimalAttackNetwork.centralSwitch.bridging.streamFilter.ingress.gate[2] outgoingPacketLengths:vector ETV
attr interpolationmode none
attr recordingmode vector
attr source "packetLength(merge(packetPushedOut, packetPulledOut))"
attr title "outgoing packet lengths"
attr unit b
vector 208 MinimalAttackNetwork.centralSwitch.bridging.streamFilter.ingress.gate[2] outgoingDataRate:vector ETV
attr interpolationmode linear
attr recordingmode vector
attr source "throughput(merge(packetPushedOut, packetPulledOut))"
attr title "outgoing data rate"
attr unit bps
[...]
2469	144785	0.434	0
2469	145101	0.435	1800
2469	145102	0.435	0
2469	145418	0.436	1800
2469	145419	0.436	0
2469	145735	0.437	1800
2469	145736	0.437	0
2469	146052	0.438	1800
2469	146053	0.438	0
2469	146369	0.439	1800
2469	146370	0.439	0
2469	146691	0.44	1800
2469	146693	0.44	0
2469	147045	0.441	1800
2469	147046	0.441	0
2469	147444	0.442	1800
2469	147445	0.442	0
2469	147761	0.443	1800
2469	147762	0.443	0
2469	148078	0.444	1800
2469	148079	0.444	0
2469	148395	0.445	1800
2469	148396	0.445	0
2469	148712	0.446	1800
2469	148713	0.446	0
2469	149029	0.447	1800
2469	149030	0.447	0
2469	149346	0.448	1800
2469	149347	0.448	0
2469	149663	0.449	1800
2469	149664	0.449	0
2469	149992	0.45	1568
2469	149995	0.45	3368
2469	149998	0.45	1800
2469	150053	0.45001728	0
2469	150406	0.451	1800
2469	150407	0.451	0
2469	150629	0.451473429914	576
2469	150630	0.451473429914	0
2469	150928	0.452	1800
2469	150929	0.452	0
2469	151245	0.453	1800
2469	151246	0.453	0
2469	151562	0.454	1800
2469	151563	0.454	0
2469	151879	0.455	1800
2469	151880	0.455	0
2469	152196	0.456	1800
2469	152197	0.456	0
2469	152513	0.457	1800
2469	152514	0.457	0
2469	152830	0.458	1800
2469	152831	0.458	0
2469	153147	0.459	1800
2469	153148	0.459	0
2469	153469	0.46	1800
2469	153471	0.46	0
2469	153823	0.461	1800
2469	153824	0.461	0
2469	154222	0.462	1800
2469	154223	0.462	0
2469	154539	0.463	1800
2469	154540	0.463	0
2469	154856	0.464	1800
2469	154857	0.464	0
2469	155173	0.465	1800
2469	155174	0.465	0
2469	155490	0.466	1800
2469	155491	0.466	0
2469	155807	0.467	1800
2469	155808	0.467	0
2469	156124	0.468	1800
2469	156125	0.468	0
2469	156441	0.469	1800
2469	156442	0.469	0
2469	156763	0.47	1800
2469	156765	0.47	0
2469	157117	0.471	1800
2469	157118	0.471	0
2469	157516	0.472	1800
2469	157517	0.472	0
2469	157833	0.473	1800
2469	157834	0.473	0
2469	158150	0.474	1800
2469	158151	0.474	0
2469	158467	0.475	1800
2469	158468	0.475	0
2469	158784	0.476	1800
2469	158785	0.476	0
2469	159101	0.477	1800
2469	159102	0.477	0
2469	159418	0.478	1800
2469	159419	0.478	0
2469	159735	0.479	1800
2469	159736	0.479	0
2469	160057	0.48	1800
2469	160059	0.48	0
2469	160411	0.481	1800
2469	160412	0.481	0
2469	160810	0.482	1800
2469	160811	0.482	0
2469	161127	0.483	1800
2469	161128	0.483	0
2469	161444	0.484	1800
2469	161445	0.484	0
2469	161761	0.485	1800
2469	161762	0.485	0
2469	162078	0.486	1800
2469	162079	0.486	0
2469	162395	0.487	1800
2469	162396	0.487	0
2469	162712	0.488	1800
2469	162713	0.488	0
2469	163029	0.489	1800
2469	163030	0.489	0
2469	163351	0.49	1800
2469	163353	0.49	0
2469	163705	0.491	1800
2469	163706	0.491	0
2469	164104	0.492	1800
2469	164105	0.492	0
2469	164421	0.493	1800
2469	164422	0.493	0
2469	164738	0.494	1800
2469	164739	0.494	0
2469	165055	0.495	1800
2469	165056	0.495	0
2469	165372	0.496	1800
2469	165373	0.496	0
2469	165689	0.497	1800
2469	165690	0.497	0
2469	166006	0.498	1800
2469	166007	0.498	0
2469	166323	0.499	1800
2469	166324	0.499	0
2469	166652	0.5	1568
2469	166655	0.5	3368
2469	166658	0.5	1800
2470	43	0	0
2470	105	0.0000196	1.96e-05
2470	384	0.000999986403	0
2470	493	0.001007346403	7.346403e-06
2470	983	0.002	0
2470	1300	0.003	0
2470	1617	0.004	0
2470	1934	0.005	0
2470	2251	0.006	0
2470	2568	0.007	0
2470	2885	0.008	0
2470	3202	0.009	0
2470	3525	0.01	0
2470	3878	0.011	0
2470	4277	0.012	0
2470	4594	0.013	0
2470	4911	0.014	0
2470	5228	0.015	0
2470	5545	0.016	0
2470	5862	0.017	0
2470	6179	0.018	0
2470	6496	0.019	0
2470	6819	0.02	0
2470	7172	0.021	0
2470	7571	0.022	0
2470	7888	0.023	0
2470	8205	0.024	0
2470	8522	0.025	0
2470	8839	0.026	0
2470	9156	0.027	0
2470	9473	0.028	0
2470	9790	0.029	0
2470	10113	0.03	0
2470	10466	0.031	0
2470	10865	0.032	0
2470	11182	0.033	0
2470	11499	0.034	0
2470	11816	0.035	0
2470	12133	0.036	0
2470	12450	0.037	0
2470	12767	0.038	0
2470	13084	0.039	0
2470	13407	0.04	0
2470	13760	0.041	0
2470	14159	0.042	0
2470	14476	0.043	0
2470	14793	0.044	0
2470	15110	0.045	0
2470	15427	0.046	0
2470	15744	0.047	0
2470	16061	0.048	0
2470	16378	0.049	0
2470	16712	0.05	0
2470	16767	0.05001728	1.728e-05
2470	17049	0.050999306514	0
2470	17149	0.051006666514	6.666514e-06
2470	17648	0.052	0
2470	17965	0.053	0
2470	18282	0.054	0
2470	18599	0.055	0
2470	18916	0.056	0
2470	19233	0.057	0
2470	19550	0.058	0
2470	19867	0.059	0
2470	20190	0.06	0
2470	20543	0.061	0
2470	20942	0.062	0
2470	21259	0.063	0
2470	21576	0.064	0
2470	21893	0.065	0
2470	22210	0.066	0
2470	22527	0.067	0
2470	22844	0.068	0
2470	23161	0.069	0
2470	23484	0.07	0
2470	23837	0.071	0
2470	24236	0.072	0
2470	24553	0.073	0
2470	24870	0.074	0
2470	25187	0.075	0
2470	25504	0.076	0
2470	25821	0.077	0
2470	26138	0.078	0
2470	26455	0.079	0
2470	26778	0.08	0
2470	27131	0.081	0
2470	27530	0.082	0
2470	27847	0.083	0
2470	28164	0.084	0
2470	28481	0.085	0
2470	28798	0.086	0
2470	29115	0.087	0
2470	29432	0.088	0
2470	29749	0.089	0
2470	30072	0.09	0
2470	30425	0.091	0
2470	30824	0.092	0
2470	31141	0.093	0
2470	31458	0.094	0
2470	31775	0.095	0
2470	32092	0.096	0
2470	32409	0.097	0
2470	32726	0.098	0
2470	33043	0.099	0
2470	33377	0.1	0
2470	33432	0.10001728	1.728e-05
2470	33779	0.101	0
2470	34004	0.101471441087	0
2470	34309	0.102	0
2470	34626	0.103	0
2470	34943	0.104	0
2470	35260	0.105	0
2470	35577	0.106	0
2470	35894	0.107	0
2470	36211	0.108	0
2470	36528	0.109	0
2470	36851	0.11	0
2470	37204	0.111	0
2470	37603	0.112	0
2470	37920	0.113	0
2470	38237	0.114	0
2470	38554	0.115	0
2470	38871	0.116	0
2470	39188	0.117	0
2470	39505	0.118	0
2470	39822	0.119	0
2470	40145	0.12	0
2470	40498	0.121	0
2470	40897	0.122	0
2470	41214	0.123	0
2470	41531	0.124	0
2470	41848	0.125	0
2470	42165	0.126	0
2470	42482	0.127	0
2470	42799	0.128	0
2470	43116	0.129	0
2470	43439	0.13	0
2470	43792	0.131	0
2470	44191	0.132	0
2470	44508	0.133	0
2470	44825	0.134	0
2470	45142	0.135	0
2470	45459	0.136	0
2470	45776	0.137	0
2470	46093	0.138	0
2470	46410	0.139	0
2470	46733	0.14	0
2470	47086	0.141	0
2470	47485	0.142	0
2470	47802	0.143	0
2470	48119	0.144	0
2470	48436	0.145	0
2470	48753	0.146	0
2470	49070	0.147	0
2470	49387	0.148	0
2470	49704	0.149	0
2470	50038	0.15	0
2470	50093	0.15001728	1.728e-05
2470	50442	0.151	0
2470	50670	0.151473429914	0
2470	50969	0.152	0
2470	51286	0.153	0
2470	51603	0.154	0
2470	51920	0.155	0
2470	52237	0.156	0
2470	52554	0.157	0
2470	52871	0.158	0
2470	53188	0.159	0
2470	53511	0.16	0
2470	53864	0.161	0
2470	54263	0.162	0
2470	54580	0.163	0
2470	54897	0.164	0
2470	55214	0.165	0
2470	55531	0.166	0
2470	55848	0.167	0
2470	56165	0.168	0
2470	56482	0.169	0
2470	56805	0.17	0
2470	57158	0.171	0
2470	57557	0.172	0
2470	57874	0.173	0
2470	58191	0.174	0
2470	58508	0.175	0
2470	58825	0.176	0
2470	59142	0.177	0
2470	59459	0.178	0
2470	59776	0.179	0
2470	60099	0.18	0
2470	60452	0.181	0
2470	60851	0.182	0
2470	61168	0.183	0
2470	61485	0.184	0
2470	61802	0.185	0
2470	62119	0.186	0
2470	62436	0.187	0
2470	62753	0.188	0
2470	63070	0.189	0
2470	63393	0.19	0
2470	63746	0.191	0
2470	64145	0.192	0
2470	64462	0.193	0
2470	64779	0.194	0
2470	65096	0.195	0
2470	65413	0.196	0
2470	65730	0.197	0
2470	66047	0.198	0
2470	66364	0.199	0
2470	66698	0.2	0
2470	66753	0.20001728	1.728e-05
2470	67102	0.201	0
2470	67330	0.201473429915	0
2470	67629	0.202	0
2470	67946	0.203	0
2470	68263	0.204	0
2470	68580	0.205	0
2470	68897	0.206	0
2470	69214	0.207	0
2470	69531	0.208	0
2470	69848	0.209	0
2470	70171	0.21	0
2470	70524	0.211	0
2470	70923	0.212	0
2470	71240	0.213	0
2470	71557	0.214	0
2470	71874	0.215	0
2470	72191	0.216	0
2470	72508	0.217	0
2470	72825	0.218	0
2470	73142	0.219	0
2470	73465	0.22	0
2470	73818	0.221	0
2470	74217	0.222	0
2470	74534	0.223	0
2470	74851	0.224	0
2470	75168	0.225	0
2470	75485	0.226	0
2470	75802	0.227	0
2470	76119	0.228	0
2470	76436	0.229	0
2470	76759	0.23	0
2470	77112	0.231	0
2470	77511	0.232	0
2470	77828	0.233	0
2470	78145	0.234	0
2470	78462	0.235	0
2470	78779	0.236	0
2470	79096	0.237	0
2470	79413	0.238	0
2470	79730	0.239	0
2470	80053	0.24	0
2470	80406	0.241	0
2470	80805	0.242	0
2470	81122	0.243	0
2470	81439	0.244	0
2470	81756	0.245	0
2470	82073	0.246	0
2470	82390	0.247	0
2470	82707	0.248	0
2470	83024	0.249	0
2470	83358	0.25	0
2470	83413	0.25001728	1.728e-05
2470	83762	0.251	0
2470	83990	0.251473429914	0
2470	84289	0.252	0
2470	84606	0.253	0
2470	84923	0.254	0
2470	85240	0.255	0
2470	85557	0.256	0
2470	85874	0.257	0
2470	86191	0.258	0
2470	86508	0.259	0
2470	86831	0.26	0
2470	87184	0.261	0
2470	87583	0.262	0
2470	87900	0.263	0
2470	88217	0.264	0
2470	88534	0.265	0
2470	88851	0.266	0
2470	89168	0.267	0
2470	89485	0.268	0
2470	89802	0.269	0
2470	90125	0.27	0
2470	90478	0.271	0
2470	90877	0.272	0
2470	91194	0.273	0
2470	91511	0.274	0
2470	91828	0.275	0
2470	92145	0.276	0
2470	92462	0.277	0
2470	92779	0.278	0
2470	93096	0.279	0
2470	93419	0.28	0
2470	93772	0.281	0
2470	94171	0.282	0
2470	94488	0.283	0
2470	94805	0.284	0
2470	95122	0.285	0
2470	95439	0.286	0
2470	95756	0.287	0
2470	96073	0.288	0
2470	96390	0.289	0
2470	96713	0.29	0
2470	97066	0.291	0
2470	97465	0.292	0
2470	97782	0.293	0
2470	98099	0.294	0
2470	98416	0.295	0
2470	98733	0.296	0
2470	99050	0.297	0
2470	99367	0.298	0
2470	99684	0.299	0
2470	100018	0.3	0
2470	100073	0.30001728	1.728e-05
2470	100425	0.301	0
2470	100650	0.301473429914	0
2470	100949	0.302	0
2470	101266	0.303	0
2470	101583	0.304	0
2470	101900	0.305	0
2470	102217	0.306	0
2470	102534	0.307	0
2470	102851	0.308	0
2470	103168	0.309	0
2470	103491	0.31	0
2470	103844	0.311	0
2470	104243	0.312	0
2470	104560	0.313	0
2470	104877	0.314	0
2470	105194	0.315	0
2470	105511	0.316	0
2470	105828	0.317	0
2470	106145	0.318	0
2470	106462	0.319	0
2470	106785	0.32	0
2470	107138	0.321	0
2470	107537	0.322	0
2470	107854	0.323	0
2470	108171	0.324	0
2470	108488	0.325	0
2470	108805	0.326	0
2470	109122	0.327	0
2470	109439	0.328	0
2470	109756	0.329	0
2470	110079	0.33	0
2470	110432	0.331	0
2470	110831	0.332	0
2470	111148	0.333	0
2470	111465	0.334	0
2470	111782	0.335	0
2470	112099	0.336	0
2470	112416	0.337	0
2470	112733	0.338	0
2470	113050	0.339	0
2470	113373	0.34	0
2470	113726	0.341	0
2470	114125	0.342	0
2470	114442	0.343	0
2470	114759	0.344	0
2470	115076	0.345	0
2470	115393	0.346	0
2470	115710	0.347	0
2470	116027	0.348	0
2470	116344	0.349	0
2470	116678	0.35	0
2470	116733	0.35001728	1.728e-05
2470	117087	0.351	0
2470	117310	0.351473429908	0
2470	117609	0.352	0
2470	117926	0.353	0
2470	118243	0.354	0
2470	118560	0.355	0
2470	118877	0.356	0
2470	119194	0.357	0
2470	119511	0.358	0
2470	119828	0.359	0
2470	120151	0.36	0
2470	120504	0.361	0
2470	120903	0.362	0
2470	121220	0.363	0
2470	121537	0.364	0
2470	121854	0.365	0
2470	122171	0.366	0
2470	122488	0.367	0
2470	122805	0.368	0
2470	123122	0.369	0
2470	123445	0.37	0
2470	123798	0.371	0
2470	124197	0.372	0
2470	124514	0.373	0
2470	124831	0.374	0
2470	125148	0.375	0
2470	125465	0.376	0
2470	125782	0.377	0
2470	126099	0.378	0
2470	126416	0.379	0
2470	126739	0.38	0
2470	127092	0.381	0
2470	127491	0.382	0
2470	127808	0.383	0
2470	128125	0.384	0
2470	128442	0.385	0
2470	128759	0.386	0
2470	129076	0.387	0
2470	129393	0.388	0
2470	129710	0.389	0
2470	130033	0.39	0
2470	130386	0.391	0
2470	130785	0.392	0
2470	131102	0.393	0
2470	131419	0.394	0
2470	131736	0.395	0
2470	132053	0.396	0
2470	132370	0.397	0
2470	132687	0.398	0
2470	133004	0.399	0
2470	133338	0.4	0
2470	133393	0.40001728	1.728e-05
2470	133747	0.401	0
2470	133970	0.40147342992	0
2470	134269	0.402	0
2470	134586	0.403	0
2470	134903	0.404	0
2470	135220	0.405	0
2470	135537	0.406	0
2470	135854	0.407	0
2470	136171	0.408	0
2470	136488	0.409	0
2470	136811	0.41	0
2470	137164	0.411	0
2470	137563	0.412	0
2470	137880	0.413	0
2470	138197	0.414	0
2470	138514	0.415	0
2470	138831	0.416	0
2470	139148	0.417	0
2470	139465	0.418	0
2470	139782	0.419	0
2470	140105	0.42	0
2470	140458	0.421	0
2470	140857	0.422	0
2470	141174	0.423	0
2470	141491	0.424	0
2470	141808	0.425	0
2470	142125	0.426	0
2470	142442	0.427	0
2470	142759	0.428	0
2470	143076	0.429	0
2470	143399	0.43	0
2470	143752	0.431	0
2470	144151	0.432	0
2470	144468	0.433	0
2470	144785	0.434	0
2470	145102	0.435	0
2470	145419	0.436	0
2470	145736	0.437	0
2470	146053	0.438	0
2470	146370	0.439	0
2470	146693	0.44	0
2470	147046	0.441	0
2470	147445	0.442	0
2470	147762	0.443	0
2470	148079	0.444	0
2470	148396	0.445	0
2470	148713	0.446	0
2470	149030	0.447	0
2470	149347	0.448	0
2470	149664	0.449	0
2470	149998	0.45	0
2470	150053	0.45001728	1.728e-05
2470	150407	0.451	0
2470	150630	0.451473429914	0
2470	150929	0.452	0
2470	151246	0.453	0
2470	151563	0.454	0
2470	151880	0.455	0
2470	152197	0.456	0
2470	152514	0.457	0
2470	152831	0.458	0
2470	153148	0.459	0
2470	153471	0.46	0
2470	153824	0.461	0
2470	154223	0.462	0
2470	154540	0.463	0
2470	154857	0.464	0
2470	155174	0.465	0
2470	155491	0.466	0
2470	155808	0.467	0
2470	156125	0.468	0
2470	156442	0.469	0
2470	156765	0.47	0
2470	157118	0.471	0
2470	157517	0.472	0
2470	157834	0.473	0
2470	158151	0.474	0
2470	158468	0.475	0
2470	158785	0.476	0
2470	159102	0.477	0
2470	159419	0.478	0
2470	159736	0.479	0
2470	160059	0.48	0
2470	160412	0.481	0
2470	160811	0.482	0
2470	161128	0.483	0
2470	161445	0.484	0
2470	161762	0.485	0
2470	162079	0.486	0
2470	162396	0.487	0
2470	162713	0.488	0
2470	163030	0.489	0
2470	163353	0.49	0
2470	163706	0.491	0
2470	164105	0.492	0
2470	164422	0.493	0
2470	164739	0.494	0
2470	165056	0.495	0
2470	165373	0.496	0
2470	165690	0.497	0
2470	166007	0.498	0
2470	166324	0.499	0
2470	166658	0.5	0
2529	31776	0.09501864	-453077.64288213
2529	63781	0.19101864	1911333.3333333
2529	95757	0.28701864	1911333.3333333
2529	127809	0.38301864	1911333.3333333
2529	159737	0.47901864	1911333.3333333
2529	166659	0.5	1776815.2302806
2553	90141	0.270014004	-387849.70194446
2553	123461	0.370014004	307040
2553	156781	0.470014004	319680
2553	166659	0.5	265724.03998186
2690	0	0	0
2690	0	0	0
2690	0	0	0
2690	0	0	0
2690	0	0	0
2690	41	0	1
2690	44	0	0
2690	457	0.001000008363	1
2690	458	0.001000008363	0
2690	16707	0.05	1
2690	16710	0.05	0
2690	17127	0.051000426557	1
2690	17128	0.051000426557	0
2690	33372	0.1	1
2690	33375	0.1	0
2690	34009	0.101471693824	1
2690	34010	0.101471693824	0
2690	50033	0.15	1
2690	50036	0.15	0
2690	50663	0.151471677429	1
2690	50664	0.151471677429	0
2690	66693	0.2	1
2690	66696	0.2	0
2690	67323	0.20147167743	1
2690	67324	0.20147167743	0
2690	83353	0.25	1
2690	83356	0.25	0
2690	83983	0.25147167743	1
2690	83984	0.25147167743	0
2690	100013	0.3	1
2690	100016	0.3	0
2690	100643	0.30147167743	1
2690	100644	0.30147167743	0
2690	116673	0.35	1
2690	116676	0.35	0
2690	117303	0.351471677424	1
2690	117304	0.351471677424	0
2690	133333	0.4	1
2690	133336	0.4	0
2690	133963	0.401471677436	1
2690	133964	0.401471677436	0
2690	149993	0.45	1
2690	149996	0.45	0
2690	150623	0.451471677435	1
2690	150624	0.451471677435	0
2690	166653	0.5	1
2690	166656	0.5	0
2691	0	0	0
2691	0	0	0
2691	0	0	0
2691	0	0	0
2691	0	0	0
2691	41	0	1360
2691	44	0	0
2691	457	0.001000008363	576
2691	458	0.001000008363	0
2691	16707	0.05	1360
2691	16710	0.05	0
2691	17127	0.051000426557	576
2691	17128	0.051000426557	0
2691	33372	0.1	1360
2691	33375	0.1	0
2691	34009	0.101471693824	576
2691	34010	0.101471693824	0
2691	50033	0.15	1360
2691	50036	0.15	0
2691	50663	0.151471677429	576
2691	50664	0.151471677429	0
2691	66693	0.2	1360
2691	66696	0.2	0
2691	67323	0.20147167743	576
2691	67324	0.20147167743	0
2691	83353	0.25	1360
2691	83356	0.25	0
2691	83983	0.25147167743	576
2691	83984	0.25147167743	0
2691	100013	0.3	1360
2691	100016	0.3	0
2691	100643	0.30147167743	576
2691	100644	0.30147167743	0
2691	116673	0.35	1360
2691	116676	0.35	0
2691	117303	0.351471677424	576
2691	117304	0.351471677424	0
2691	133333	0.4	1360
2691	133336	0.4	0
2691	133963	0.401471677436	576
2691	133964	0.401471677436	0
2691	149993	0.45	1360
2691	149996	0.45	0
2691	150623	0.451471677435	576
2691	150624	0.451471677435	0
2691	166653	0.5	1360
2691	166656	0.5	0
2692	44	0	0
2692	458	0.001000008363	0
2692	16710	0.05	0
2692	17128	0.051000426557	0
2692	33375	0.1	0
2692	34010	0.101471693824	0
2692	50036	0.15	0
2692	50664	0.151471677429	0
2692	66696	0.2	0
2692	67324	0.20147167743	0
2692	83356	0.25	0
2692	83984	0.25147167743	0
2692	100016	0.3	0
2692	100644	0.30147167743	0
2692	116676	0.35	0
2692	117304	0.351471677424	0
2692	133336	0.4	0
2692	133964	0.401471677436	0
2692	149996	0.45	0
2692	150624	0.451471677435	0
2692	166656	0.5	0
2775	23895	0.071020595735	-369714.71922234
2775	48471	0.14503738	2190314.0160692
2775	72860	0.21803738	2198465.7534247
2775	97305	0.29150821	2180892.7434194
2775	121572	0.36403738	2212737.3027983
2775	146710	0.440014004	2139710.7615627
2775	166659	0.5	2157570.2435615
2928	0	0	0
2928	0	0	0
2928	0	0	0
2928	0	0	0
2928	0	0	0
2928	460	0.001000015147	1
2928	461	0.001000015147	0
2928	17130	0.051000772501	1
2928	17131	0.051000772501	0
2928	34012	0.10147177189	1
2928	34013	0.10147177189	0
2928	50666	0.151471755494	1
2928	50667	0.151471755494	0
2928	67326	0.201471755495	1
2928	67327	0.201471755495	0
2928	83986	0.25147175549	1
2928	83987	0.25147175549	0
2928	100646	0.30147175549	1
2928	100647	0.30147175549	0
2928	117306	0.351471755484	1
2928	117307	0.351471755484	0
2928	133966	0.401471755502	1
2928	133967	0.401471755502	0
2928	150626	0.451471755501	1
2928	150627	0.451471755501	0
2929	0	0	0
2929	0	0	0
2929	0	0	0
2929	0	0	0
2929	0	0	0
2929	460	0.001000015147	576
2929	461	0.001000015147	0
2929	17130	0.051000772501	576
2929	17131	0.051000772501	0
2929	34012	0.10147177189	576
2929	34013	0.10147177189	0
2929	50666	0.151471755494	576
2929	50667	0.151471755494	0
2929	67326	0.201471755495	576
2929	67327	0.201471755495	0
2929	83986	0.25147175549	576
2929	83987	0.25147175549	0
2929	100646	0.30147175549	576
2929	100647	0.30147175549	0
2929	117306	0.351471755484	576
2929	117307	0.351471755484	0
2929	133966	0.401471755502	576
2929	133967	0.401471755502	0
2929	150626	0.451471755501	576
2929	150627	0.451471755501	0
2930	461	0.001000015147	0
2930	17131	0.051000772501	0
2930	34013	0.10147177189	0
2930	50667	0.151471755494	0
2930	67327	0.201471755495	0
2930	83987	0.25147175549	0
2930	100647	0.30147175549	0
2930	117307	0.351471755484	0
2930	133967	0.401471755502	0
2930	150627	0.451471755501	0
3013	23896	0.071020595735	-368744.97569651
3013	48472	0.14503738	2187503.8426462
3013	72861	0.21803738	2192767.1232877
3013	97306	0.29150821	2178061.6878835
3013	121573	0.36403738	2207001.6794622
3013	146711	0.440014004	2136973.0774034
3013	166659	0.5	2154102.767586
3142	0	0	0
3142	0	0	0
3142	0	0	0
3142	0	0	0
3142	0	0	0
3142	392	0.000999999567	1
3142	393	0.000999999567	0
3142	17057	0.050999977912	1
3142	17058	0.050999977912	0
3142	34006	0.101471592587	1
3142	34007	0.101471592587	0
3142	50672	0.151473581414	1
3142	50673	0.151473581414	0
3142	67332	0.201473581414	1
3142	67333	0.201473581414	0
3142	83992	0.251473581414	1
3142	83993	0.251473581414	0
3142	100652	0.301473581415	1
3142	100653	0.301473581415	0
3142	117312	0.351473581409	1
3142	117313	0.351473581409	0
3142	133972	0.401473581421	1
3142	133973	0.401473581421	0
3142	150632	0.451473581419	1
3142	150633	0.451473581419	0
3143	0	0	0
3143	0	0	0
3143	0	0	0
3143	0	0	0
3143	0	0	0
3143	392	0.000999999567	576
3143	393	0.000999999567	0
3143	17057	0.050999977912	576
3143	17058	0.050999977912	0
3143	34006	0.101471592587	576
3143	34007	0.101471592587	0
3143	50672	0.151473581414	576
3143	50673	0.151473581414	0
3143	67332	0.201473581414	576
3143	67333	0.201473581414	0
3143	83992	0.251473581414	576
3143	83993	0.251473581414	0
3143	100652	0.301473581415	576
3143	100653	0.301473581415	0
3143	117312	0.351473581409	576
3143	117313	0.351473581409	0
3143	133972	0.401473581421	576
3143	133973	0.401473581421	0
3143	150632	0.451473581419	576
3143	150633	0.451473581419	0
3144	393	0.000999999567	0
3144	17058	0.050999977912	0
3144	34007	0.101471592587	0
3144	50673	0.151473581414	0
3144	67333	0.201473581414	0
3144	83993	0.251473581414	0
3144	100653	0.301473581415	0
3144	117313	0.351473581409	0
3144	133973	0.401473581421	0
3144	150633	0.451473581419	0
3227	23897	0.071020595735	-368744.97569651
3227	48473	0.14503738	2187503.8426462
3227	72862	0.21803738	2192767.1232877
3227	97307	0.29150821	2178061.6878835
3227	121574	0.36403738	2207001.6794622
3227	146712	0.440014004	2136973.0774034
3227	166659	0.5	2154102.767586

