version 3
run Baseline-9-20250831-17:24:46-460755
attr configname Baseline
attr datetime 20250831-17:24:46
attr datetimef 20250831-172446
attr experiment Baseline
attr inifile omnetpp.ini
attr iterationvars ""
attr iterationvarsd ""
attr iterationvarsf ""
attr measurement ""
attr network MinimalAttackNetwork
attr processid 460755
attr repetition 9
attr replication #9
attr resultdir results_flat
attr runnumber 9
attr seedset 9
config image-path ../../../../SharedRoom/omnetpp-ml-workspace/inet4.5/images
config extends General
config description "Baseline: Normal TSN operation without attacks (Label: normal)"
config *.centralSwitch.bridging.streamFilter.ingress.hasDefaultPath false
config *.criticalSensor.numApps 2
config *.criticalSensor.app[0].typename UdpSourceApp
config *.criticalSensor.app[0].source.packetNameFormat "\"CRITICAL_SENSOR-%c\""
config *.criticalSensor.app[0].source.packetLength 175B
config *.criticalSensor.app[0].source.productionInterval 1ms
config *.criticalSensor.app[0].source.startTime 10ms
config *.criticalSensor.app[0].io.destAddress "\"mainECU\""
config *.criticalSensor.app[0].io.destPort 5000
config *.criticalSensor.app[1].typename UdpSourceApp
config *.criticalSensor.app[1].source.packetNameFormat "\"SENSOR_MON-%c\""
config *.criticalSensor.app[1].source.packetLength 150B
config *.criticalSensor.app[1].source.productionInterval 50ms
config *.criticalSensor.app[1].source.startTime 12ms
config *.criticalSensor.app[1].io.destAddress "\"display\""
config *.criticalSensor.app[1].io.destPort 7000
config *.display.numApps 3
config *.display.app[0].typename UdpSinkApp
config *.display.app[0].io.localPort 6000
config *.display.app[1].typename UdpSinkApp
config *.display.app[1].io.localPort 7000
config *.display.app[2].typename UdpSourceApp
config *.display.app[2].source.packetNameFormat "\"DISPLAY_UPDATE-%c\""
config *.display.app[2].source.packetLength 120B
config *.display.app[2].source.productionInterval 50ms
config *.display.app[2].source.startTime 15ms
config *.display.app[2].io.destAddress "\"mainECU\""
config *.display.app[2].io.destPort 6003
config *.mainECU.numApps 3
config *.mainECU.app[0].typename UdpSinkApp
config *.mainECU.app[0].io.localPort 5000
config *.mainECU.app[1].typename UdpSourceApp
config *.mainECU.app[1].source.packetNameFormat "\"STATUS_UPDATE-%c\""
config *.mainECU.app[1].source.packetLength 100B
config *.mainECU.app[1].source.productionInterval 10ms
config *.mainECU.app[1].source.startTime 20ms
config *.mainECU.app[1].io.destAddress "\"display\""
config *.mainECU.app[1].io.destPort 6000
config *.mainECU.app[2].typename UdpSinkApp
config *.mainECU.app[2].io.localPort 6003
config network MinimalAttackNetwork
config sim-time-limit 500ms
config description "Minimal TSN attack scenarios for ML training (500ms)"
config cmdenv-interactive false
config repeat 10
config seed-set 9
config *.dataCollector.outputFile "\"results_flat/tsn_signals_Baseline-#9.csv\""
config user-interface Cmdenv
config *.masterClock.eth[*].bitrate 100Mbps
config *.centralSwitch.eth[0].bitrate 100Mbps
config *.centralSwitch.eth[1].bitrate 1Gbps
config *.centralSwitch.eth[2].bitrate 100Mbps
config *.centralSwitch.eth[3].bitrate 100Mbps
config *.centralSwitch.eth[4].bitrate 100Mbps
config *.centralSwitch.eth[5].bitrate 100Mbps
config *.mainECU.eth[*].bitrate 1Gbps
config *.criticalSensor.eth[*].bitrate 100Mbps
config *.display.eth[*].bitrate 100Mbps
config *.attackerExternal.eth[*].bitrate 100Mbps
config *.compromisedNode.eth[*].bitrate 100Mbps
config *.configurator.config "xml(\"<config><interface hosts='**' address='10.0.0.x' netmask='255.255.255.0'/></config>\")"
config *.centralSwitch.typename TsnSwitch
config *.mainECU.typename TsnDevice
config *.criticalSensor.typename TsnDevice
config *.display.typename TsnDevice
config *.attackerExternal.typename TsnDevice
config *.compromisedNode.typename TsnDevice
config *.masterClock.typename TsnClock
config *.mainECU.hasUdp true
config *.criticalSensor.hasUdp true
config *.display.hasUdp true
config *.attackerExternal.hasUdp true
config *.compromisedNode.hasUdp true
config *.mainECU.hasIpv4 true
config *.criticalSensor.hasIpv4 true
config *.display.hasIpv4 true
config *.attackerExternal.hasIpv4 true
config *.compromisedNode.hasIpv4 true
config *.*.hasTimeSynchronization true
config *.*.clock.oscillator.driftRate "uniform(-20ppm, 20ppm)"
config **.gptp.syncInterval 10ms
config **.gptp.syncInitialOffset 1ms
config **.gptp.pdelayInterval 50ms
config **.gptp.pdelayInitialOffset 1ms
config *.masterClock.gptp.masterPorts "[\"eth0\"]"
config *.centralSwitch.gptp.slavePort "\"eth0\""
config *.centralSwitch.gptp.masterPorts "[\"eth1\",\"eth2\",\"eth3\",\"eth4\",\"eth5\"]"
config *.*.hasOutgoingStreams true
config *.centralSwitch.hasEgressTrafficShaping true
config *.centralSwitch.hasIncomingStreams true
config *.criticalSensor.bridging.streamIdentifier.typename StreamIdentifierLayer
config *.criticalSensor.bridging.streamCoder.typename StreamCoderLayer
config *.centralSwitch.bridging.streamCoder.encoder.mapping "[{stream: \"critical_control\", pcp: 7, vlan: 10}, {stream: \"status_updates\", pcp: 5, vlan: 30}, {stream: \"display_data\", pcp: 3, vlan: 20}, {stream: \"external_attack\", pcp: 0, vlan: 40}, {stream: \"compromised_attack\", pcp: 0, vlan: 41}]"
config *.centralSwitch.bridging.streamCoder.decoder.mapping "[{stream: \"critical_control\", pcp: 7, destination: \"mainECU\"}, {stream: \"status_updates\", pcp: 5, destination: \"mainECU\"}, {stream: \"display_data\", pcp: 3, destination: \"mainECU\"}, {stream: \"external_attack\", pcp: 0, source: \"attackerExternal\", destination: \"mainECU\"}, {stream: \"compromised_attack\", pcp: 0, source: \"compromisedNode\", destination: \"mainECU\"}]"
config "*.centralSwitch.bridging.streamCoder.decoder.mapping +" "[{pcp: 4, stream: \"sensor_monitoring\"}]"
config "*.centralSwitch.bridging.streamCoder.decoder.mapping +" "[{pcp: 4, destination: \"display\", stream: \"sensor_monitoring\"}]"
config "*.centralSwitch.bridging.streamCoder.decoder.mapping +" "[{stream: \"sensor_monitoring\", packetFilter: expr(has(udp) && udp.destPort == 7000)}]"
config "*.centralSwitch.bridging.streamCoder.encoder.mapping +" "[{stream: \"sensor_monitoring\", pcp: 4, vlan: 25}]"
config "*.centralSwitch.bridging.streamCoder.decoder.mapping +" "[{destination: \"01:80:C2:00:00:0E\", stream: \"gptp\"}]"
config "*.centralSwitch.bridging.streamCoder.decoder.mapping +" "[{packetFilter: expr(ethernetMacHeader.typeOrLength == 0x88f7), stream: \"gptp\"}]"
config "*.centralSwitch.bridging.streamCoder.decoder.mapping +" "[{pcp: 0, stream: \"default_stream\"}]"
config "*.centralSwitch.bridging.streamIdentifier.identifier.mapping +" "[{stream: \"gptp\", packetFilter: expr(has(etherTypeInd) && etherTypeInd.etherType == 0x88f7)}]"
config "*.centralSwitch.bridging.streamIdentifier.identifier.mapping +" "[{stream: \"gptp\", packetFilter: expr(ethernetMacHeader.typeOrLength == 0x88f7)}]"
config "*.centralSwitch.bridging.streamIdentifier.identifier.mapping +" "[{stream: \"gptp\", packetFilter: expr(etherType == 0x88f7)}]"
config "*.centralSwitch.bridging.streamIdentifier.identifier.mapping +" "[{stream: \"gptp\", packetFilter: expr(destAddress == \"01:80:C2:00:00:0E\")}]"
config *.centralSwitch.bridging.streamFilter.ingress.numStreams 8
config *.centralSwitch.bridging.streamFilter.ingress.classifier.mapping "{\"critical_control\": 0, \"status_updates\": 1, \"external_attack\": 2, \"compromised_attack\": 3, \"display_data\": 4, \"gptp\": 5, \"default_stream\": 6, \"sensor_monitoring\": 7}"
config *.centralSwitch.bridging.streamFilter.ingress.hasDefaultPath false
config *.centralSwitch.bridging.streamFilter.ingress.classifier.mode "\"both\""
config *.centralSwitch.bridging.streamFilter.ingress.classifier.defaultGateIndex 5
config *.centralSwitch.bridging.streamFilter.ingress.meter[*].typename DualRateThreeColorMeter
config *.centralSwitch.bridging.streamFilter.ingress.meter[0].display-name critical_control
config *.centralSwitch.bridging.streamFilter.ingress.meter[1].display-name status_updates
config *.centralSwitch.bridging.streamFilter.ingress.meter[2].display-name external_attack
config *.centralSwitch.bridging.streamFilter.ingress.meter[3].display-name compromised_attack
config *.centralSwitch.bridging.streamFilter.ingress.meter[4].display-name display_data
config *.centralSwitch.bridging.streamFilter.ingress.meter[0].committedInformationRate 10Mbps
config *.centralSwitch.bridging.streamFilter.ingress.meter[0].committedBurstSize 5kB
config *.centralSwitch.bridging.streamFilter.ingress.meter[0].excessInformationRate 5Mbps
config *.centralSwitch.bridging.streamFilter.ingress.meter[0].excessBurstSize 3kB
config *.centralSwitch.bridging.streamFilter.ingress.meter[1].committedInformationRate 5Mbps
config *.centralSwitch.bridging.streamFilter.ingress.meter[1].committedBurstSize 3kB
config *.centralSwitch.bridging.streamFilter.ingress.meter[1].excessInformationRate 2Mbps
config *.centralSwitch.bridging.streamFilter.ingress.meter[1].excessBurstSize 1kB
config *.centralSwitch.bridging.streamFilter.ingress.meter[2].committedInformationRate 50kbps
config *.centralSwitch.bridging.streamFilter.ingress.meter[2].committedBurstSize 256B
config *.centralSwitch.bridging.streamFilter.ingress.meter[2].excessInformationRate 25kbps
config *.centralSwitch.bridging.streamFilter.ingress.meter[2].excessBurstSize 128B
config *.centralSwitch.bridging.streamFilter.ingress.meter[3].committedInformationRate 50kbps
config *.centralSwitch.bridging.streamFilter.ingress.meter[3].committedBurstSize 256B
config *.centralSwitch.bridging.streamFilter.ingress.meter[3].excessInformationRate 25kbps
config *.centralSwitch.bridging.streamFilter.ingress.meter[3].excessBurstSize 128B
config *.centralSwitch.bridging.streamFilter.ingress.meter[4].committedInformationRate 2Mbps
config *.centralSwitch.bridging.streamFilter.ingress.meter[4].committedBurstSize 2kB
config *.centralSwitch.bridging.streamFilter.ingress.meter[4].excessInformationRate 1Mbps
config *.centralSwitch.bridging.streamFilter.ingress.meter[4].excessBurstSize 1kB
config *.centralSwitch.bridging.streamFilter.ingress.meter[5].display-name gptp
config *.centralSwitch.bridging.streamFilter.ingress.meter[5].committedInformationRate 1Mbps
config *.centralSwitch.bridging.streamFilter.ingress.meter[5].committedBurstSize 1kB
config *.centralSwitch.bridging.streamFilter.ingress.meter[5].excessInformationRate 1Mbps
config *.centralSwitch.bridging.streamFilter.ingress.meter[5].excessBurstSize 1kB
config *.centralSwitch.bridging.streamFilter.ingress.meter[6].display-name default_stream
config *.centralSwitch.bridging.streamFilter.ingress.meter[6].committedInformationRate 1bps
config *.centralSwitch.bridging.streamFilter.ingress.meter[6].committedBurstSize 1B
config *.centralSwitch.bridging.streamFilter.ingress.meter[6].excessInformationRate 1bps
config *.centralSwitch.bridging.streamFilter.ingress.meter[6].excessBurstSize 1B
config *.centralSwitch.bridging.streamFilter.ingress.meter[7].display-name sensor_monitoring
config *.centralSwitch.bridging.streamFilter.ingress.meter[7].committedInformationRate 3Mbps
config *.centralSwitch.bridging.streamFilter.ingress.meter[7].committedBurstSize 2kB
config *.centralSwitch.bridging.streamFilter.ingress.meter[7].excessInformationRate 1Mbps
config *.centralSwitch.bridging.streamFilter.ingress.meter[7].excessBurstSize 1kB
config *.centralSwitch.bridging.streamFilter.ingress.filter[5].labelFilter "\"green or yellow\""
config *.criticalSensor.bridging.streamIdentifier.identifier.mapping "[{stream: \"critical_control\", packetFilter: expr(has(udp) && udp.destPort == 5000)}]"
config *.criticalSensor.bridging.streamCoder.encoder.mapping "[{stream: \"critical_control\", pcp: 7, vlan: 10}]"
config *.mainECU.bridging.streamIdentifier.identifier.mapping "[{stream: \"status_updates\", packetFilter: expr(has(udp) && udp.destPort == 6000)}]"
config *.mainECU.bridging.streamCoder.encoder.mapping "[{stream: \"status_updates\", pcp: 5, vlan: 30}]"
config "*.criticalSensor.bridging.streamIdentifier.identifier.mapping +" "[{stream: \"sensor_monitoring\", packetFilter: expr(has(udp) && udp.destPort == 7000)}]"
config "*.criticalSensor.bridging.streamCoder.encoder.mapping +" "[{stream: \"sensor_monitoring\", pcp: 4, vlan: 25}]"
config *.display.bridging.streamIdentifier.identifier.mapping "[{stream: \"display_data\", packetFilter: expr(has(udp) && udp.destPort == 6003)}]"
config *.display.bridging.streamCoder.encoder.mapping "[{stream: \"display_data\", pcp: 3, vlan: 20}]"
config *.attackerExternal.bridging.streamIdentifier.identifier.mapping "[{stream: \"external_attack\", packetFilter: expr(has(udp) && udp.destPort == 5000)}]"
config *.attackerExternal.bridging.streamCoder.encoder.mapping "[{stream: \"external_attack\", pcp: 0, vlan: 40}]"
config *.compromisedNode.bridging.streamIdentifier.identifier.mapping "[{stream: \"compromised_attack\", packetFilter: expr(has(udp) && (udp.destPort == 8888 || udp.destPort == 5000))}]"
config *.compromisedNode.bridging.streamCoder.encoder.mapping "[{stream: \"compromised_attack\", pcp: 0, vlan: 41}]"
config *.criticalSensor.hasOutgoingStreams true
config *.display.hasOutgoingStreams true
config *.attackerExternal.hasOutgoingStreams true
config *.compromisedNode.hasOutgoingStreams true
config *.mainECU.hasOutgoingStreams true
config *.masterClock.hasOutgoingStreams true
config *.masterClock.bridging.streamIdentifier.identifier.mapping "[{stream: \"gptp\", packetFilter: expr(etherType == 0x88f7)}]"
config *.masterClock.bridging.streamCoder.encoder.mapping "[{stream: \"gptp\", pcp: 6, vlan: 0}]"
config "*.criticalSensor.bridging.streamIdentifier.identifier.mapping +" "[{stream: \"default_stream\", packetFilter: expr(true)}]"
config "*.criticalSensor.bridging.streamCoder.encoder.mapping        +" "[{stream: \"default_stream\",  pcp: 0, vlan: 0}]"
config "*.display.bridging.streamIdentifier.identifier.mapping       +" "[{stream: \"default_stream\", packetFilter: expr(true)}]"
config "*.display.bridging.streamCoder.encoder.mapping               +" "[{stream: \"default_stream\",  pcp: 0, vlan: 0}]"
config "*.attackerExternal.bridging.streamIdentifier.identifier.mapping +" "[{stream: \"default_stream\", packetFilter: expr(true)}]"
config "*.attackerExternal.bridging.streamCoder.encoder.mapping         +" "[{stream: \"default_stream\",  pcp: 0, vlan: 0}]"
config "*.compromisedNode.bridging.streamIdentifier.identifier.mapping  +" "[{stream: \"default_stream\", packetFilter: expr(true)}]"
config "*.compromisedNode.bridging.streamCoder.encoder.mapping          +" "[{stream: \"default_stream\",  pcp: 0, vlan: 0}]"
config "*.mainECU.bridging.streamIdentifier.identifier.mapping          +" "[{stream: \"default_stream\", packetFilter: expr(true)}]"
config "*.mainECU.bridging.streamCoder.encoder.mapping                  +" "[{stream: \"default_stream\",  pcp: 0, vlan: 0}]"
config *.centralSwitch.eth[*].macLayer.queue.numTrafficClasses 8
config *.centralSwitch.eth[*].macLayer.queue.classifier.typename PcpClassifier
config *.centralSwitch.eth[*].macLayer.queue.classifier.pcpToGateIndex "[0, 1, 2, 3, 4, 5, 6, 7]"
config *.centralSwitch.eth[*].macLayer.queue.transmissionGate[*].typename PeriodicGate
config *.centralSwitch.eth[*].macLayer.queue.transmissionGate[7].durations "[250us, 250us]"
config *.centralSwitch.eth[*].macLayer.queue.transmissionGate[6].durations "[200us, 300us]"
config *.centralSwitch.eth[*].macLayer.queue.transmissionGate[5].durations "[150us, 350us]"
config *.centralSwitch.eth[*].macLayer.queue.transmissionGate[4].durations "[100us, 400us]"
config *.centralSwitch.eth[*].macLayer.queue.transmissionGate[3].durations "[100us, 400us]"
config *.centralSwitch.eth[*].macLayer.queue.transmissionGate[2].durations "[50us, 450us]"
config *.centralSwitch.eth[*].macLayer.queue.transmissionGate[1].durations "[50us, 450us]"
config *.centralSwitch.eth[*].macLayer.queue.transmissionGate[0].durations "[25us, 475us]"
config *.centralSwitch.hasStreamRedundancy false
config *.centralSwitch.hasIngressTrafficFiltering true
config *.centralSwitch.bridging.streamIdentifier.typename StreamIdentifierLayer
config *.centralSwitch.bridging.streamIdentifier.identifier.typename StreamIdentifier
config *.centralSwitch.hasEgressTrafficShaping true
config *.centralSwitch.hasStreamFiltering true
config *.centralSwitch.hasStreamPolicing true
config *.centralSwitch.bridging.streamFilter.ingress.meter[*].colorAware false
config **.app[*].endToEndDelay:vector.result-recording-modes all
config **.app[*].endToEndDelay:vector.vector-recording true
config **.app[*].endToEndDelay:histogram.result-recording-modes all
config **.bitrate:vector.result-recording-modes all
config **.bitrate:vector.vector-recording true
config **.throughput:vector.result-recording-modes all
config **.throughput:vector.vector-recording true
config **.datarate:vector.result-recording-modes all
config **.datarate:vector.vector-recording true
config **.queue.queueLength:vector.result-recording-modes all
config **.queue.queueLength:vector.vector-recording true
config **.queue.queueingTime:vector.result-recording-modes all
config **.queue.queueingTime:vector.vector-recording true
config **.queue.queueBitLength:vector.result-recording-modes all
config **.queue.queueBitLength:vector.vector-recording true
config **.packetDropped:count.result-recording-modes all
config **.packetDropped:vector.result-recording-modes all
config **.packetDropped:vector.vector-recording true
config **.packetSent:count.result-recording-modes all
config **.packetReceived:count.result-recording-modes all
config **.rxPkOk:count.result-recording-modes all
config **.rxPkOk:vector.result-recording-modes all
config **.txPk:count.result-recording-modes all
config **.txPk:vector.result-recording-modes all
config **.bridging.streamFilter.ingress.meter[*].committedConformingPackets:count.result-recording-modes all
config **.bridging.streamFilter.ingress.meter[*].committedConformingPackets:vector.result-recording-modes all
config **.bridging.streamFilter.ingress.meter[*].committedConformingPackets:vector.vector-recording true
config **.bridging.streamFilter.ingress.meter[*].committedNonConformingPackets:count.result-recording-modes all
config **.bridging.streamFilter.ingress.meter[*].committedNonConformingPackets:vector.result-recording-modes all
config **.bridging.streamFilter.ingress.meter[*].committedNonConformingPackets:vector.vector-recording true
config **.bridging.streamFilter.ingress.meter[*].excessConformingPackets:count.result-recording-modes all
config **.bridging.streamFilter.ingress.meter[*].excessConformingPackets:vector.result-recording-modes all
config **.bridging.streamFilter.ingress.meter[*].excessConformingPackets:vector.vector-recording true
config **.bridging.streamFilter.ingress.meter[*].packetFiltered:count.result-recording-modes all
config **.bridging.streamFilter.ingress.meter[*].packetFiltered:vector.result-recording-modes all
config **.bridging.streamFilter.ingress.meter[*].packetFiltered:vector.vector-recording true
config **.bridging.streamCoder.packetEncoded:count.result-recording-modes all
config **.bridging.streamCoder.packetDecoded:count.result-recording-modes all
config **.bridging.streamIdentifier.packetClassified:count.result-recording-modes all
config **.bridging.streamIdentifier.packetClassified:vector.result-recording-modes all
config **.bridging.streamIdentifier.packetClassified:vector.vector-recording true
config **.queue.transmissionGate[*].gateStateChanged:vector.result-recording-modes all
config **.queue.transmissionGate[*].gateStateChanged:vector.vector-recording true
config **.queue.transmissionSelectionAlgorithm[*].credit:vector.result-recording-modes all
config **.queue.transmissionSelectionAlgorithm[*].credit:vector.vector-recording true
config **.gptp.clockServo.offsetNanoseconds:vector.result-recording-modes all
config **.gptp.clockServo.offsetNanoseconds:vector.vector-recording true
config **.gptp.clockServo.driftPpm:vector.result-recording-modes all
config **.gptp.clockServo.driftPpm:vector.vector-recording true
config **.gptp.clockServo.rateRatio:vector.result-recording-modes all
config **.gptp.clockServo.rateRatio:vector.vector-recording true
config **.mac.txPk:count.result-recording-modes all
config **.mac.rxPkOk:count.result-recording-modes all
config **.mac.frameSequenceErrors:count.result-recording-modes all
config **.mac.alignmentErrors:count.result-recording-modes all
config **.phy.txPk:count.result-recording-modes all
config **.phy.rxPkOk:count.result-recording-modes all
config **.phy.symbolErrors:count.result-recording-modes all
config **.ipv4.routingTable.routeAdded:count.result-recording-modes all
config **.ipv4.routingTable.routeDeleted:count.result-recording-modes all
config **.udp.packetSent:count.result-recording-modes all
config **.udp.packetReceived:count.result-recording-modes all
config **.udp.passedUpPk:count.result-recording-modes all
config **.pcp0:count.result-recording-modes all
config **.pcp1:count.result-recording-modes all
config **.pcp2:count.result-recording-modes all
config **.pcp3:count.result-recording-modes all
config **.pcp4:count.result-recording-modes all
config **.pcp5:count.result-recording-modes all
config **.pcp6:count.result-recording-modes all
config **.pcp7:count.result-recording-modes all
config *.attackerExternal.numApps 0
config *.compromisedNode.numApps 0
config *.visualizer.typename IntegratedCanvasVisualizer
config *.visualizer.dataLinkVisualizer.displayLinks true
config *.visualizer.dataLinkVisualizer.activityLevel "\"protocol\""
config *.visualizer.dataLinkVisualizer.fadeOutMode "\"simulationTime\""
config *.visualizer.dataLinkVisualizer.fadeOutTime 0.2s
config *.visualizer.statisticVisualizer.displayStatistics true
config *.visualizer.statisticVisualizer.signalName "\"packetReceived\""
config *.visualizer.statisticVisualizer.sourceFilter "\"**.app[*]\""
config *.visualizer.statisticVisualizer.format "\"count\""
config *.dataCollector.outputFile "\"results_flat/tsn_signals_Baseline-#9.csv\""
config *.dataCollector.windowLength 1ms
config *.dataCollector.emitCSV true
config *.dataCollector.emitPCPBreakdowns false
config *.dataCollector.emitRaw false
config *.dataCollector.emitNDJSON false
config *.dataCollector.emitPerStreamRows true
config *.dataCollector.includeControlFramesInThroughput true
config *.dataCollector.emitZeroIfNoSamples false
config *.mainECU.numApps 4
config *.mainECU.app[3].typename UdpBasicApp
config *.mainECU.app[3].localPort 6100
config *.mainECU.app[3].destAddresses "\"display\""
config *.mainECU.app[3].destPort 6000
config *.mainECU.app[3].messageLength 256B
config *.mainECU.app[3].sendInterval 2ms
config *.mainECU.app[3].startTime 10ms
config *.mainECU.app[3].stopTime 0.5s
config *.mlInferenceEngine.modelPath "\"../ml_models/tsn_extended_fdeep.json\""
config *.mlInferenceEngine.normPath "\"../ml_models/tsn_extended_norm.json\""
config *.mlInferenceEngine.inferenceInterval 1ms
config *.mlInferenceEngine.anomalyThreshold 0.7
config result-dir results_flat
config output-scalar-file results_flat/Baseline-9.sca
config output-vector-file results_flat/Baseline-9.vec
config **.result-recording-modes default
config **.vector-recording false
config **.scalar-recording false

vector 0 MinimalAttackNetwork.masterClock.clock.oscillator driftRateChanged:vector ETV
attr interpolationmode sample-hold
attr recordingmode vector
attr title "Oscillator drift rate"
attr unit ppm
vector 1 MinimalAttackNetwork.masterClock.clock timeChanged:vector ETV
attr interpolationmode linear
attr recordingmode vector
attr title "Clock time"
vector 2 MinimalAttackNetwork.masterClock.ethernet.macHeaderInserter incomingPacketLengths:vector ETV
attr interpolationmode none
attr recordingmode vector
attr source "packetLength(merge(packetPushedIn, packetPulledIn))"
attr title "incoming packet lengths"
attr unit b
vector 3 MinimalAttackNetwork.masterClock.ethernet.macHeaderInserter incomingDataRate:vector ETV
attr interpolationmode linear
attr recordingmode vector
attr source "throughput(merge(packetPushedIn, packetPulledIn))"
attr title "incoming data rate"
attr unit bps
vector 4 MinimalAttackNetwork.masterClock.ethernet.macHeaderInserter outgoingPacketLengths:vector ETV
attr interpolationmode none
attr recordingmode vector
attr source "packetLength(merge(packetPushedOut, packetPulledOut))"
attr title "outgoing packet lengths"
attr unit b
vector 5 MinimalAttackNetwork.masterClock.ethernet.macHeaderInserter outgoingDataRate:vector ETV
attr interpolationmode linear
attr recordingmode vector
attr source "throughput(merge(packetPushedOut, packetPulledOut))"
attr title "outgoing data rate"
attr unit bps
vector 6 MinimalAttackNetwork.masterClock.ethernet.macHeaderInserter flowIncomingPacketLengths:vector ETV
attr interpolationmode none
attr recordingmode vector
attr source "packetLength(demuxFlow(merge(packetPushedIn, packetPulledIn)))"
attr title "flow specific incoming packet lengths"
attr unit b
vector 7 MinimalAttackNetwork.masterClock.ethernet.macHeaderInserter flowIncomingDataRate:vector ETV
attr interpolationmode linear
attr recordingmode vector
attr source "throughput(demuxFlow(merge(packetPushedIn, packetPulledIn)))"
attr title "flow specific incoming data rate"
attr unit bps
vector 8 MinimalAttackNetwork.masterClock.ethernet.macHeaderInserter flowOutgoingPacketLengths:vector ETV
attr interpolationmode none
attr recordingmode vector
attr source "packetLength(demuxFlow(merge(packetPushedOut, packetPulledOut)))"
attr title "flow specific outgoing packet lengths"
attr unit b
vector 9 MinimalAttackNetwork.masterClock.ethernet.macHeaderInserter flowOutgoingDataRate:vector ETV
attr interpolationmode linear
attr recordingmode vector
attr source "throughput(demuxFlow(merge(packetPushedOut, packetPulledOut)))"
attr title "flow specific outgoing data rate"
attr unit bps
vector 10 MinimalAttackNetwork.masterClock.ethernet.paddingInserter incomingPacketLengths:vector ETV
attr interpolationmode none
attr recordingmode vector
attr source "packetLength(merge(packetPushedIn, packetPulledIn))"
attr title "incoming packet lengths"
attr unit b
vector 11 MinimalAttackNetwork.masterClock.ethernet.paddingInserter incomingDataRate:vector ETV
attr interpolationmode linear
attr recordingmode vector
attr source "throughput(merge(packetPushedIn, packetPulledIn))"
attr title "incoming data rate"
attr unit bps
vector 12 MinimalAttackNetwork.masterClock.ethernet.paddingInserter outgoingPacketLengths:vector ETV
attr interpolationmode none
attr recordingmode vector
attr source "packetLength(merge(packetPushedOut, packetPulledOut))"
attr title "outgoing packet lengths"
attr unit b
vector 13 MinimalAttackNetwork.masterClock.ethernet.paddingInserter outgoingDataRate:vector ETV
attr interpolationmode linear
attr recordingmode vector
attr source "throughput(merge(packetPushedOut, packetPulledOut))"
attr title "outgoing data rate"
attr unit bps
vector 14 MinimalAttackNetwork.masterClock.ethernet.paddingInserter flowIncomingPacketLengths:vector ETV
attr interpolationmode none
attr recordingmode vector
attr source "packetLength(demuxFlow(merge(packetPushedIn, packetPulledIn)))"
attr title "flow specific incoming packet lengths"
attr unit b
vector 15 MinimalAttackNetwork.masterClock.ethernet.paddingInserter flowIncomingDataRate:vector ETV
attr interpolationmode linear
attr recordingmode vector
attr source "throughput(demuxFlow(merge(packetPushedIn, packetPulledIn)))"
attr title "flow specific incoming data rate"
attr unit bps
vector 16 MinimalAttackNetwork.masterClock.ethernet.paddingInserter flowOutgoingPacketLengths:vector ETV
attr interpolationmode none
attr recordingmode vector
attr source "packetLength(demuxFlow(merge(packetPushedOut, packetPulledOut)))"
attr title "flow specific outgoing packet lengths"
attr unit b
vector 17 MinimalAttackNetwork.masterClock.ethernet.paddingInserter flowOutgoingDataRate:vector ETV
attr interpolationmode linear
attr recordingmode vector
attr source "throughput(demuxFlow(merge(packetPushedOut, packetPulledOut)))"
attr title "flow specific outgoing data rate"
attr unit bps
vector 18 MinimalAttackNetwork.masterClock.ethernet.fcsInserter incomingPacketLengths:vector ETV
attr interpolationmode none
attr recordingmode vector
attr source "packetLength(merge(packetPushedIn, packetPulledIn))"
attr title "incoming packet lengths"
attr unit b
vector 19 MinimalAttackNetwork.masterClock.ethernet.fcsInserter incomingDataRate:vector ETV
attr interpolationmode linear
attr recordingmode vector
attr source "throughput(merge(packetPushedIn, packetPulledIn))"
attr title "incoming data rate"
attr unit bps
vector 20 MinimalAttackNetwork.masterClock.ethernet.fcsInserter outgoingPacketLengths:vector ETV
attr interpolationmode none
attr recordingmode vector
attr source "packetLength(merge(packetPushedOut, packetPulledOut))"
attr title "outgoing packet lengths"
attr unit b
vector 21 MinimalAttackNetwork.masterClock.ethernet.fcsInserter outgoingDataRate:vector ETV
attr interpolationmode linear
attr recordingmode vector
attr source "throughput(merge(packetPushedOut, packetPulledOut))"
attr title "outgoing data rate"
attr unit bps
vector 22 MinimalAttackNetwork.masterClock.ethernet.fcsInserter flowIncomingPacketLengths:vector ETV
attr interpolationmode none
attr recordingmode vector
attr source "packetLength(demuxFlow(merge(packetPushedIn, packetPulledIn)))"
attr title "flow specific incoming packet lengths"
attr unit b
vector 23 MinimalAttackNetwork.masterClock.ethernet.fcsInserter flowIncomingDataRate:vector ETV
attr interpolationmode linear
attr recordingmode vector
attr source "throughput(demuxFlow(merge(packetPushedIn, packetPulledIn)))"
attr title "flow specific incoming data rate"
attr unit bps
vector 24 MinimalAttackNetwork.masterClock.ethernet.fcsInserter flowOutgoingPacketLengths:vector ETV
attr interpolationmode none
attr recordingmode vector
attr source "packetLength(demuxFlow(merge(packetPushedOut, packetPulledOut)))"
attr title "flow specific outgoing packet lengths"
attr unit b
vector 25 MinimalAttackNetwork.masterClock.ethernet.fcsInserter flowOutgoingDataRate:vector ETV
attr interpolationmode linear
attr recordingmode vector
attr source "throughput(demuxFlow(merge(packetPushedOut, packetPulledOut)))"
attr title "flow specific outgoing data rate"
attr unit bps
vector 26 MinimalAttackNetwork.masterClock.ethernet.macHeaderChecker incomingPacketLengths:vector ETV
attr interpolationmode none
attr recordingmode vector
attr source "packetLength(merge(packetPushedIn, packetPulledIn))"
attr title "incoming packet lengths"
attr unit b
vector 27 MinimalAttackNetwork.masterClock.ethernet.macHeaderChecker incomingDataRate:vector ETV
attr interpolationmode linear
attr recordingmode vector
attr source "throughput(merge(packetPushedIn, packetPulledIn))"
attr title "incoming data rate"
attr unit bps
vector 28 MinimalAttackNetwork.masterClock.ethernet.macHeaderChecker outgoingPacketLengths:vector ETV
attr interpolationmode none
attr recordingmode vector
attr source "packetLength(merge(packetPushedOut, packetPulledOut))"
attr title "outgoing packet lengths"
attr unit b
vector 29 MinimalAttackNetwork.masterClock.ethernet.macHeaderChecker outgoingDataRate:vector ETV
attr interpolationmode linear
attr recordingmode vector
attr source "throughput(merge(packetPushedOut, packetPulledOut))"
attr title "outgoing data rate"
attr unit bps
vector 30 MinimalAttackNetwork.masterClock.ethernet.macHeaderChecker droppedPacketLengths:vector ETV
attr interpolationmode none
attr recordingmode vector
attr source packetLength(packetDropped)
attr title "dropped packet lengths"
attr unit b
vector 31 MinimalAttackNetwork.masterClock.ethernet.macHeaderChecker droppedDataRate:vector ETV
attr interpolationmode linear
attr recordingmode vector
attr source throughput(packetDropped)
attr title "dropped data rate"
attr unit bps
vector 32 MinimalAttackNetwork.masterClock.ethernet.macHeaderChecker flowIncomingPacketLengths:vector ETV
attr interpolationmode none
attr recordingmode vector
attr source "packetLength(demuxFlow(merge(packetPushedIn, packetPulledIn)))"
attr title "flow specific incoming packet lengths"
attr unit b
vector 33 MinimalAttackNetwork.masterClock.ethernet.macHeaderChecker flowIncomingDataRate:vector ETV
attr interpolationmode linear
attr recordingmode vector
attr source "throughput(demuxFlow(merge(packetPushedIn, packetPulledIn)))"
attr title "flow specific incoming data rate"
attr unit bps
vector 34 MinimalAttackNetwork.masterClock.ethernet.macHeaderChecker flowOutgoingPacketLengths:vector ETV
attr interpolationmode none
attr recordingmode vector
attr source "packetLength(demuxFlow(merge(packetPushedOut, packetPulledOut)))"
attr title "flow specific outgoing packet lengths"
attr unit b
vector 35 MinimalAttackNetwork.masterClock.ethernet.macHeaderChecker flowOutgoingDataRate:vector ETV
attr interpolationmode linear
attr recordingmode vector
attr source "throughput(demuxFlow(merge(packetPushedOut, packetPulledOut)))"
attr title "flow specific outgoing data rate"
attr unit bps
vector 36 MinimalAttackNetwork.masterClock.ethernet.macHeaderChecker flowDroppedPacketLengths:vector ETV
attr interpolationmode none
attr recordingmode vector
attr source packetLength(demuxFlow(packetDropped))
attr title "flow specific dropped packet lengths"
attr unit b
vector 37 MinimalAttackNetwork.masterClock.ethernet.macHeaderChecker flowDroppedDataRate:vector ETV
attr interpolationmode linear
attr recordingmode vector
attr source throughput(demuxFlow(packetDropped))
attr title "flow specific dropped data rate"
attr unit bps
vector 38 MinimalAttackNetwork.masterClock.ethernet.fcsChecker incomingPacketLengths:vector ETV
attr interpolationmode none
attr recordingmode vector
attr source "packetLength(merge(packetPushedIn, packetPulledIn))"
attr title "incoming packet lengths"
attr unit b
vector 39 MinimalAttackNetwork.masterClock.ethernet.fcsChecker incomingDataRate:vector ETV
attr interpolationmode linear
attr recordingmode vector
attr source "throughput(merge(packetPushedIn, packetPulledIn))"
attr title "incoming data rate"
attr unit bps
vector 40 MinimalAttackNetwork.masterClock.ethernet.fcsChecker outgoingPacketLengths:vector ETV
attr interpolationmode none
attr recordingmode vector
attr source "packetLength(merge(packetPushedOut, packetPulledOut))"
attr title "outgoing packet lengths"
attr unit b
vector 41 MinimalAttackNetwork.masterClock.ethernet.fcsChecker outgoingDataRate:vector ETV
attr interpolationmode linear
attr recordingmode vector
attr source "throughput(merge(packetPushedOut, packetPulledOut))"
attr title "outgoing data rate"
attr unit bps
vector 42 MinimalAttackNetwork.masterClock.ethernet.fcsChecker droppedPacketLengths:vector ETV
attr interpolationmode none
attr recordingmode vector
attr source packetLength(packetDropped)
attr title "dropped packet lengths"
attr unit b
vector 43 MinimalAttackNetwork.masterClock.ethernet.fcsChecker droppedDataRate:vector ETV
attr interpolationmode linear
attr recordingmode vector
attr source throughput(packetDropped)
attr title "dropped data rate"
attr unit bps
vector 44 MinimalAttackNetwork.masterClock.ethernet.fcsChecker flowIncomingPacketLengths:vector ETV
attr interpolationmode none
attr recordingmode vector
attr source "packetLength(demuxFlow(merge(packetPushedIn, packetPulledIn)))"
attr title "flow specific incoming packet lengths"
attr unit b
vector 45 MinimalAttackNetwork.masterClock.ethernet.fcsChecker flowIncomingDataRate:vector ETV
attr interpolationmode linear
attr recordingmode vector
attr source "throughput(demuxFlow(merge(packetPushedIn, packetPulledIn)))"
attr title "flow specific incoming data rate"
attr unit bps
vector 46 MinimalAttackNetwork.masterClock.ethernet.fcsChecker flowOutgoingPacketLengths:vector ETV
attr interpolationmode none
attr recordingmode vector
attr source "packetLength(demuxFlow(merge(packetPushedOut, packetPulledOut)))"
attr title "flow specific outgoing packet lengths"
attr unit b
vector 47 MinimalAttackNetwork.masterClock.ethernet.fcsChecker flowOutgoingDataRate:vector ETV
attr interpolationmode linear
attr recordingmode vector
attr source "throughput(demuxFlow(merge(packetPushedOut, packetPulledOut)))"
attr title "flow specific outgoing data rate"
attr unit bps
vector 48 MinimalAttackNetwork.masterClock.ethernet.fcsChecker flowDroppedPacketLengths:vector ETV
attr interpolationmode none
attr recordingmode vector
attr source packetLength(demuxFlow(packetDropped))
attr title "flow specific dropped packet lengths"
attr unit b
vector 49 MinimalAttackNetwork.masterClock.ethernet.fcsChecker flowDroppedDataRate:vector ETV
attr interpolationmode linear
attr recordingmode vector
attr source throughput(demuxFlow(packetDropped))
attr title "flow specific dropped data rate"
attr unit bps
vector 50 MinimalAttackNetwork.masterClock.lo[0].lo rcvdPkFromHl:vector(packetBytes) ETV
attr interpolationmode none
attr recordingmode vector(packetBytes)
attr source packetReceivedFromUpper
attr title "packets received from higher layer, packetBytes"
vector 51 MinimalAttackNetwork.masterClock.lo[0].lo passedUpPk:vector(packetBytes) ETV
attr interpolationmode none
attr recordingmode vector(packetBytes)
attr source packetSentToUpper
attr title "packets passed to higher layer, packetBytes"
vector 52 MinimalAttackNetwork.masterClock.lo[0] packetDropInterfaceDown:vector(packetBytes) ETV
attr interpolationmode none
attr recordingmode vector(packetBytes)
attr source packetDropReasonIsInterfaceDown(packetDropped)
attr title "packet drops: interface down, packetBytes"
vector 53 MinimalAttackNetwork.masterClock.lo[0] packetDropNoCarrier:vector(packetBytes) ETV
attr interpolationmode none
attr recordingmode vector(packetBytes)
attr source packetDropReasonIsNoCarrier(packetDropped)
attr title "packet drops: no carrier, packetBytes"
vector 54 MinimalAttackNetwork.masterClock.eth[0].macLayer.queue queueLength:vector ETV
attr autoWarmupFilter false
attr interpolationmode sample-hold
attr recordingmode vector
attr source "warmup(atomic(constant0(packetPushEnded) + count(packetPushStarted) - count(packetPulled) - count(packetRemoved) - count(packetDropped)))"
attr title "queue length"
attr unit pk
vector 55 MinimalAttackNetwork.masterClock.eth[0].macLayer.queue queueBitLength:vector ETV
attr autoWarmupFilter false
attr interpolationmode sample-hold
attr recordingmode vector
attr source "warmup(atomic(constant0(packetPushEnded) + sum(packetLength(packetPushStarted)) - sum(packetLength(packetPulled)) - sum(packetLength(packetRemoved)) - sum(packetLength(packetDropped))))"
attr title "queue bit length"
attr unit b
vector 56 MinimalAttackNetwork.masterClock.eth[0].macLayer.queue queueingTime:vector ETV
attr interpolationmode none
attr recordingmode vector
attr source queueingTime(packetPulled)
attr title "queueing times"
attr unit s
vector 57 MinimalAttackNetwork.masterClock.eth[0].macLayer.queue incomingPacketLengths:vector ETV
attr interpolationmode none
attr recordingmode vector
attr source packetLength(packetPushStarted)
attr title "incoming packet lengths"
attr unit b
vector 58 MinimalAttackNetwork.masterClock.eth[0].macLayer.queue incomingDataRate:vector ETV
attr interpolationmode linear
attr recordingmode vector
attr source throughput(packetPushStarted)
attr title "incoming datarate"
attr unit bps
vector 59 MinimalAttackNetwork.masterClock.eth[0].macLayer.queue outgoingPacketLengths:vector ETV
attr interpolationmode none
attr recordingmode vector
attr source packetLength(packetPulled)
attr title "outgoing packet lengths"
attr unit b
vector 60 MinimalAttackNetwork.masterClock.eth[0].macLayer.queue outgoingDataRate:vector ETV
attr interpolationmode linear
attr recordingmode vector
attr source throughput(packetPulled)
attr title "outgoing datarate"
attr unit bps
vector 61 MinimalAttackNetwork.masterClock.eth[0].macLayer.queue droppedPacketLengthsQueueOverflow:vector ETV
attr interpolationmode none
attr recordingmode vector
attr source packetLength(packetDropReasonIsQueueOverflow(packetDropped))
attr title "dropped packet lengths: queue overflow"
attr unit b
vector 62 MinimalAttackNetwork.masterClock.eth[0].macLayer.queue flowQueueingTime:vector ETV
attr interpolationmode none
attr recordingmode vector
attr source queueingTime(demuxFlow(packetPulled))
attr title "flow queueing times"
attr unit s
vector 63 MinimalAttackNetwork.masterClock.eth[0].macLayer.queue flowIncomingDataRate:vector ETV
attr interpolationmode linear
attr recordingmode vector
attr source throughput(flowPacketLength(demuxFlow(packetPushStarted)))
attr title "flow specific incoming data rate"
attr unit bps
vector 64 MinimalAttackNetwork.masterClock.eth[0].macLayer.queue flowOutgoingDataRate:vector ETV
attr interpolationmode linear
attr recordingmode vector
attr source throughput(flowPacketLength(demuxFlow(packetPulled)))
attr title "flow specific outgoing data rate"
attr unit bps
vector 65 MinimalAttackNetwork.masterClock.eth[0].macLayer.server incomingPacketLengths:vector ETV
attr interpolationmode none
attr recordingmode vector
attr source packetLength(packetPulled)
attr title "incoming packet lengths"
attr unit b
vector 66 MinimalAttackNetwork.masterClock.eth[0].macLayer.server incomingDataRate:vector ETV
attr interpolationmode linear
attr recordingmode vector
attr source throughput(packetPulled)
attr title "incoming datarate"
attr unit bps
vector 67 MinimalAttackNetwork.masterClock.eth[0].macLayer.server outgoingPacketLengths:vector ETV
attr interpolationmode none
attr recordingmode vector
attr source packetLength(packetPushed)
attr title "outgoing packet lengths"
attr unit b
vector 68 MinimalAttackNetwork.masterClock.eth[0].macLayer.server outgoingDataRate:vector ETV
attr interpolationmode linear
attr recordingmode vector
attr source throughput(packetPushed)
attr title "outgoing datarate"
attr unit bps
vector 69 MinimalAttackNetwork.masterClock.eth[0].macLayer.outboundEmitter incomingPacketLengths:vector ETV
attr interpolationmode none
attr recordingmode vector
attr source "packetLength(merge(packetPushedIn, packetPulledIn))"
attr title "incoming packet lengths"
attr unit b
vector 70 MinimalAttackNetwork.masterClock.eth[0].macLayer.outboundEmitter incomingDataRate:vector ETV
attr interpolationmode linear
attr recordingmode vector
attr source "throughput(merge(packetPushedIn, packetPulledIn))"
attr title "incoming data rate"
attr unit bps
vector 71 MinimalAttackNetwork.masterClock.eth[0].macLayer.outboundEmitter outgoingPacketLengths:vector ETV
attr interpolationmode none
attr recordingmode vector
attr source "packetLength(merge(packetPushedOut, packetPulledOut))"
attr title "outgoing packet lengths"
attr unit b
vector 72 MinimalAttackNetwork.masterClock.eth[0].macLayer.outboundEmitter outgoingDataRate:vector ETV
attr interpolationmode linear
attr recordingmode vector
attr source "throughput(merge(packetPushedOut, packetPulledOut))"
attr title "outgoing data rate"
attr unit bps
vector 73 MinimalAttackNetwork.masterClock.eth[0].macLayer.outboundEmitter flowIncomingPacketLengths:vector ETV
attr interpolationmode none
attr recordingmode vector
attr source "packetLength(demuxFlow(merge(packetPushedIn, packetPulledIn)))"
attr title "flow specific incoming packet lengths"
attr unit b
vector 74 MinimalAttackNetwork.masterClock.eth[0].macLayer.outboundEmitter flowIncomingDataRate:vector ETV
attr interpolationmode linear
attr recordingmode vector
attr source "throughput(demuxFlow(merge(packetPushedIn, packetPulledIn)))"
attr title "flow specific incoming data rate"
attr unit bps
vector 75 MinimalAttackNetwork.masterClock.eth[0].macLayer.outboundEmitter flowOutgoingPacketLengths:vector ETV
attr interpolationmode none
attr recordingmode vector
attr source "packetLength(demuxFlow(merge(packetPushedOut, packetPulledOut)))"
attr title "flow specific outgoing packet lengths"
attr unit b
vector 76 MinimalAttackNetwork.masterClock.eth[0].macLayer.outboundEmitter flowOutgoingDataRate:vector ETV
attr interpolationmode linear
attr recordingmode vector
attr source "throughput(demuxFlow(merge(packetPushedOut, packetPulledOut)))"
attr title "flow specific outgoing data rate"
attr unit bps
vector 77 MinimalAttackNetwork.masterClock.eth[0].macLayer.fcsChecker incomingPacketLengths:vector ETV
attr interpolationmode none
attr recordingmode vector
attr source "packetLength(merge(packetPushedIn, packetPulledIn))"
attr title "incoming packet lengths"
attr unit b
vector 78 MinimalAttackNetwork.masterClock.eth[0].macLayer.fcsChecker incomingDataRate:vector ETV
attr interpolationmode linear
attr recordingmode vector
attr source "throughput(merge(packetPushedIn, packetPulledIn))"
attr title "incoming data rate"
attr unit bps
vector 79 MinimalAttackNetwork.masterClock.eth[0].macLayer.fcsChecker outgoingPacketLengths:vector ETV
attr interpolationmode none
attr recordingmode vector
attr source "packetLength(merge(packetPushedOut, packetPulledOut))"
attr title "outgoing packet lengths"
attr unit b
vector 80 MinimalAttackNetwork.masterClock.eth[0].macLayer.fcsChecker outgoingDataRate:vector ETV
attr interpolationmode linear
attr recordingmode vector
attr source "throughput(merge(packetPushedOut, packetPulledOut))"
attr title "outgoing data rate"
attr unit bps
vector 81 MinimalAttackNetwork.masterClock.eth[0].macLayer.fcsChecker droppedPacketLengths:vector ETV
attr interpolationmode none
attr recordingmode vector
attr source packetLength(packetDropped)
attr title "dropped packet lengths"
attr unit b
vector 82 MinimalAttackNetwork.masterClock.eth[0].macLayer.fcsChecker droppedDataRate:vector ETV
attr interpolationmode linear
attr recordingmode vector
attr source throughput(packetDropped)
attr title "dropped data rate"
attr unit bps
vector 83 MinimalAttackNetwork.masterClock.eth[0].macLayer.fcsChecker flowIncomingPacketLengths:vector ETV
attr interpolationmode none
attr recordingmode vector
attr source "packetLength(demuxFlow(merge(packetPushedIn, packetPulledIn)))"
attr title "flow specific incoming packet lengths"
attr unit b
vector 84 MinimalAttackNetwork.masterClock.eth[0].macLayer.fcsChecker flowIncomingDataRate:vector ETV
attr interpolationmode linear
attr recordingmode vector
attr source "throughput(demuxFlow(merge(packetPushedIn, packetPulledIn)))"
attr title "flow specific incoming data rate"
attr unit bps
vector 85 MinimalAttackNetwork.masterClock.eth[0].macLayer.fcsChecker flowOutgoingPacketLengths:vector ETV
attr interpolationmode none
attr recordingmode vector
attr source "packetLength(demuxFlow(merge(packetPushedOut, packetPulledOut)))"
attr title "flow specific outgoing packet lengths"
attr unit b
vector 86 MinimalAttackNetwork.masterClock.eth[0].macLayer.fcsChecker flowOutgoingDataRate:vector ETV
attr interpolationmode linear
attr recordingmode vector
attr source "throughput(demuxFlow(merge(packetPushedOut, packetPulledOut)))"
attr title "flow specific outgoing data rate"
attr unit bps
vector 87 MinimalAttackNetwork.masterClock.eth[0].macLayer.fcsChecker flowDroppedPacketLengths:vector ETV
attr interpolationmode none
attr recordingmode vector
attr source packetLength(demuxFlow(packetDropped))
attr title "flow specific dropped packet lengths"
attr unit b
vector 88 MinimalAttackNetwork.masterClock.eth[0].macLayer.fcsChecker flowDroppedDataRate:vector ETV
attr interpolationmode linear
attr recordingmode vector
attr source throughput(demuxFlow(packetDropped))
attr title "flow specific dropped data rate"
attr unit bps
vector 89 MinimalAttackNetwork.masterClock.eth[0].macLayer.inboundEmitter incomingPacketLengths:vector ETV
attr interpolationmode none
attr recordingmode vector
attr source "packetLength(merge(packetPushedIn, packetPulledIn))"
attr title "incoming packet lengths"
attr unit b
vector 90 MinimalAttackNetwork.masterClock.eth[0].macLayer.inboundEmitter incomingDataRate:vector ETV
attr interpolationmode linear
attr recordingmode vector
attr source "throughput(merge(packetPushedIn, packetPulledIn))"
attr title "incoming data rate"
attr unit bps
vector 91 MinimalAttackNetwork.masterClock.eth[0].macLayer.inboundEmitter outgoingPacketLengths:vector ETV
attr interpolationmode none
attr recordingmode vector
attr source "packetLength(merge(packetPushedOut, packetPulledOut))"
attr title "outgoing packet lengths"
attr unit b
vector 92 MinimalAttackNetwork.masterClock.eth[0].macLayer.inboundEmitter outgoingDataRate:vector ETV
attr interpolationmode linear
attr recordingmode vector
attr source "throughput(merge(packetPushedOut, packetPulledOut))"
attr title "outgoing data rate"
attr unit bps
vector 93 MinimalAttackNetwork.masterClock.eth[0].macLayer.inboundEmitter flowIncomingPacketLengths:vector ETV
attr interpolationmode none
attr recordingmode vector
attr source "packetLength(demuxFlow(merge(packetPushedIn, packetPulledIn)))"
attr title "flow specific incoming packet lengths"
attr unit b
vector 94 MinimalAttackNetwork.masterClock.eth[0].macLayer.inboundEmitter flowIncomingDataRate:vector ETV
attr interpolationmode linear
attr recordingmode vector
attr source "throughput(demuxFlow(merge(packetPushedIn, packetPulledIn)))"
attr title "flow specific incoming data rate"
attr unit bps
vector 95 MinimalAttackNetwork.masterClock.eth[0].macLayer.inboundEmitter flowOutgoingPacketLengths:vector ETV
attr interpolationmode none
attr recordingmode vector
attr source "packetLength(demuxFlow(merge(packetPushedOut, packetPulledOut)))"
attr title "flow specific outgoing packet lengths"
attr unit b
vector 96 MinimalAttackNetwork.masterClock.eth[0].macLayer.inboundEmitter flowOutgoingDataRate:vector ETV
attr interpolationmode linear
attr recordingmode vector
attr source "throughput(demuxFlow(merge(packetPushedOut, packetPulledOut)))"
attr title "flow specific outgoing data rate"
attr unit bps
vector 97 MinimalAttackNetwork.masterClock.eth[0].phyLayer.phyHeaderInserter incomingPacketLengths:vector ETV
attr interpolationmode none
attr recordingmode vector
attr source "packetLength(merge(packetPushedIn, packetPulledIn))"
attr title "incoming packet lengths"
attr unit b
vector 98 MinimalAttackNetwork.masterClock.eth[0].phyLayer.phyHeaderInserter incomingDataRate:vector ETV
attr interpolationmode linear
attr recordingmode vector
attr source "throughput(merge(packetPushedIn, packetPulledIn))"
attr title "incoming data rate"
attr unit bps
vector 99 MinimalAttackNetwork.masterClock.eth[0].phyLayer.phyHeaderInserter outgoingPacketLengths:vector ETV
attr interpolationmode none
attr recordingmode vector
attr source "packetLength(merge(packetPushedOut, packetPulledOut))"
attr title "outgoing packet lengths"
attr unit b
vector 100 MinimalAttackNetwork.masterClock.eth[0].phyLayer.phyHeaderInserter outgoingDataRate:vector ETV
attr interpolationmode linear
attr recordingmode vector
attr source "throughput(merge(packetPushedOut, packetPulledOut))"
attr title "outgoing data rate"
attr unit bps
vector 101 MinimalAttackNetwork.masterClock.eth[0].phyLayer.phyHeaderInserter flowIncomingPacketLengths:vector ETV
attr interpolationmode none
attr recordingmode vector
attr source "packetLength(demuxFlow(merge(packetPushedIn, packetPulledIn)))"
attr title "flow specific incoming packet lengths"
attr unit b
vector 102 MinimalAttackNetwork.masterClock.eth[0].phyLayer.phyHeaderInserter flowIncomingDataRate:vector ETV
attr interpolationmode linear
attr recordingmode vector
attr source "throughput(demuxFlow(merge(packetPushedIn, packetPulledIn)))"
attr title "flow specific incoming data rate"
attr unit bps
vector 103 MinimalAttackNetwork.masterClock.eth[0].phyLayer.phyHeaderInserter flowOutgoingPacketLengths:vector ETV
attr interpolationmode none
attr recordingmode vector
attr source "packetLength(demuxFlow(merge(packetPushedOut, packetPulledOut)))"
attr title "flow specific outgoing packet lengths"
attr unit b
vector 104 MinimalAttackNetwork.masterClock.eth[0].phyLayer.phyHeaderInserter flowOutgoingDataRate:vector ETV
attr interpolationmode linear
attr recordingmode vector
attr source "throughput(demuxFlow(merge(packetPushedOut, packetPulledOut)))"
attr title "flow specific outgoing data rate"
attr unit bps
vector 105 MinimalAttackNetwork.masterClock.eth[0].phyLayer.interFrameGapInserter interpacketGap:vector ETV
attr interpolationmode sample-hold
attr recordingmode vector
attr source "count(interpacketGapStarted) - count(interpacketGapEnded)"
attr title "interpacket gap state"
attr type int
vector 106 MinimalAttackNetwork.masterClock.eth[0].phyLayer.outboundEmitter incomingPacketLengths:vector ETV
attr interpolationmode none
attr recordingmode vector
attr source "packetLength(merge(packetPushedIn, packetPulledIn))"
attr title "incoming packet lengths"
attr unit b
vector 107 MinimalAttackNetwork.masterClock.eth[0].phyLayer.outboundEmitter incomingDataRate:vector ETV
attr interpolationmode linear
attr recordingmode vector
attr source "throughput(merge(packetPushedIn, packetPulledIn))"
attr title "incoming data rate"
attr unit bps
vector 108 MinimalAttackNetwork.masterClock.eth[0].phyLayer.outboundEmitter outgoingPacketLengths:vector ETV
attr interpolationmode none
attr recordingmode vector
attr source "packetLength(merge(packetPushedOut, packetPulledOut))"
attr title "outgoing packet lengths"
attr unit b
vector 109 MinimalAttackNetwork.masterClock.eth[0].phyLayer.outboundEmitter outgoingDataRate:vector ETV
attr interpolationmode linear
attr recordingmode vector
attr source "throughput(merge(packetPushedOut, packetPulledOut))"
attr title "outgoing data rate"
attr unit bps
vector 110 MinimalAttackNetwork.masterClock.eth[0].phyLayer.outboundEmitter flowIncomingPacketLengths:vector ETV
attr interpolationmode none
attr recordingmode vector
attr source "packetLength(demuxFlow(merge(packetPushedIn, packetPulledIn)))"
attr title "flow specific incoming packet lengths"
attr unit b
vector 111 MinimalAttackNetwork.masterClock.eth[0].phyLayer.outboundEmitter flowIncomingDataRate:vector ETV
attr interpolationmode linear
attr recordingmode vector
attr source "throughput(demuxFlow(merge(packetPushedIn, packetPulledIn)))"
attr title "flow specific incoming data rate"
attr unit bps
vector 112 MinimalAttackNetwork.masterClock.eth[0].phyLayer.outboundEmitter flowOutgoingPacketLengths:vector ETV
attr interpolationmode none
attr recordingmode vector
attr source "packetLength(demuxFlow(merge(packetPushedOut, packetPulledOut)))"
attr title "flow specific outgoing packet lengths"
attr unit b
vector 113 MinimalAttackNetwork.masterClock.eth[0].phyLayer.outboundEmitter flowOutgoingDataRate:vector ETV
attr interpolationmode linear
attr recordingmode vector
attr source "throughput(demuxFlow(merge(packetPushedOut, packetPulledOut)))"
attr title "flow specific outgoing data rate"
attr unit bps
vector 114 MinimalAttackNetwork.masterClock.eth[0].phyLayer.transmitter transmitting:vector ETV
attr interpolationmode sample-hold
attr recordingmode vector
attr source "count(transmissionStarted) - count(transmissionEnded)"
attr title "transmitting state"
attr type int
vector 115 MinimalAttackNetwork.masterClock.eth[0].phyLayer.transmitter throughput:vector ETV
attr interpolationmode linear
attr recordingmode vector
attr source throughput(transmissionEnded)
attr title throughput
attr unit bps
vector 116 MinimalAttackNetwork.masterClock.eth[0].phyLayer.transmitter utilization:vector ETV
attr interpolationmode linear
attr recordingmode vector
attr source "100 * utilization(count(transmissionStarted) - count(transmissionEnded))"
attr title utilization
attr unit %
vector 117 MinimalAttackNetwork.masterClock.eth[0].phyLayer.transmitter transmissionTime:vector ETV
attr interpolationmode none
attr recordingmode vector
attr source packetDuration(transmissionEnded)
attr title "transmission time"
attr unit s
vector 118 MinimalAttackNetwork.masterClock.eth[0].phyLayer.transmitter flowTransmissionTime:vector ETV
attr interpolationmode none
attr recordingmode vector
attr source packetDuration(demuxFlow(transmissionEnded))
attr title "flow transmission time"
attr unit s
vector 119 MinimalAttackNetwork.masterClock.eth[0].phyLayer.phyHeaderChecker incomingPacketLengths:vector ETV
attr interpolationmode none
attr recordingmode vector
attr source "packetLength(merge(packetPushedIn, packetPulledIn))"
attr title "incoming packet lengths"
attr unit b
vector 120 MinimalAttackNetwork.masterClock.eth[0].phyLayer.phyHeaderChecker incomingDataRate:vector ETV
attr interpolationmode linear
attr recordingmode vector
attr source "throughput(merge(packetPushedIn, packetPulledIn))"
attr title "incoming data rate"
attr unit bps
vector 121 MinimalAttackNetwork.masterClock.eth[0].phyLayer.phyHeaderChecker outgoingPacketLengths:vector ETV
attr interpolationmode none
attr recordingmode vector
attr source "packetLength(merge(packetPushedOut, packetPulledOut))"
attr title "outgoing packet lengths"
attr unit b
vector 122 MinimalAttackNetwork.masterClock.eth[0].phyLayer.phyHeaderChecker outgoingDataRate:vector ETV
attr interpolationmode linear
attr recordingmode vector
attr source "throughput(merge(packetPushedOut, packetPulledOut))"
attr title "outgoing data rate"
attr unit bps
vector 123 MinimalAttackNetwork.masterClock.eth[0].phyLayer.phyHeaderChecker droppedPacketLengths:vector ETV
attr interpolationmode none
attr recordingmode vector
attr source packetLength(packetDropped)
attr title "dropped packet lengths"
attr unit b
vector 124 MinimalAttackNetwork.masterClock.eth[0].phyLayer.phyHeaderChecker droppedDataRate:vector ETV
attr interpolationmode linear
attr recordingmode vector
attr source throughput(packetDropped)
attr title "dropped data rate"
attr unit bps
vector 125 MinimalAttackNetwork.masterClock.eth[0].phyLayer.phyHeaderChecker flowIncomingPacketLengths:vector ETV
attr interpolationmode none
attr recordingmode vector
attr source "packetLength(demuxFlow(merge(packetPushedIn, packetPulledIn)))"
attr title "flow specific incoming packet lengths"
attr unit b
vector 126 MinimalAttackNetwork.masterClock.eth[0].phyLayer.phyHeaderChecker flowIncomingDataRate:vector ETV
attr interpolationmode linear
attr recordingmode vector
attr source "throughput(demuxFlow(merge(packetPushedIn, packetPulledIn)))"
attr title "flow specific incoming data rate"
attr unit bps
vector 127 MinimalAttackNetwork.masterClock.eth[0].phyLayer.phyHeaderChecker flowOutgoingPacketLengths:vector ETV
attr interpolationmode none
attr recordingmode vector
attr source "packetLength(demuxFlow(merge(packetPushedOut, packetPulledOut)))"
attr title "flow specific outgoing packet lengths"
attr unit b
vector 128 MinimalAttackNetwork.masterClock.eth[0].phyLayer.phyHeaderChecker flowOutgoingDataRate:vector ETV
attr interpolationmode linear
attr recordingmode vector
attr source "throughput(demuxFlow(merge(packetPushedOut, packetPulledOut)))"
attr title "flow specific outgoing data rate"
attr unit bps
vector 129 MinimalAttackNetwork.masterClock.eth[0].phyLayer.phyHeaderChecker flowDroppedPacketLengths:vector ETV
attr interpolationmode none
attr recordingmode vector
attr source packetLength(demuxFlow(packetDropped))
attr title "flow specific dropped packet lengths"
attr unit b
vector 130 MinimalAttackNetwork.masterClock.eth[0].phyLayer.phyHeaderChecker flowDroppedDataRate:vector ETV
attr interpolationmode linear
attr recordingmode vector
attr source throughput(demuxFlow(packetDropped))
attr title "flow specific dropped data rate"
attr unit bps
vector 131 MinimalAttackNetwork.masterClock.eth[0].phyLayer.inboundEmitter incomingPacketLengths:vector ETV
attr interpolationmode none
attr recordingmode vector
attr source "packetLength(merge(packetPushedIn, packetPulledIn))"
attr title "incoming packet lengths"
attr unit b
vector 132 MinimalAttackNetwork.masterClock.eth[0].phyLayer.inboundEmitter incomingDataRate:vector ETV
attr interpolationmode linear
attr recordingmode vector
attr source "throughput(merge(packetPushedIn, packetPulledIn))"
attr title "incoming data rate"
attr unit bps
vector 133 MinimalAttackNetwork.masterClock.eth[0].phyLayer.inboundEmitter outgoingPacketLengths:vector ETV
attr interpolationmode none
attr recordingmode vector
attr source "packetLength(merge(packetPushedOut, packetPulledOut))"
attr title "outgoing packet lengths"
attr unit b
vector 134 MinimalAttackNetwork.masterClock.eth[0].phyLayer.inboundEmitter outgoingDataRate:vector ETV
attr interpolationmode linear
attr recordingmode vector
attr source "throughput(merge(packetPushedOut, packetPulledOut))"
attr title "outgoing data rate"
attr unit bps
vector 135 MinimalAttackNetwork.masterClock.eth[0].phyLayer.inboundEmitter flowIncomingPacketLengths:vector ETV
attr interpolationmode none
attr recordingmode vector
attr source "packetLength(demuxFlow(merge(packetPushedIn, packetPulledIn)))"
attr title "flow specific incoming packet lengths"
attr unit b
vector 136 MinimalAttackNetwork.masterClock.eth[0].phyLayer.inboundEmitter flowIncomingDataRate:vector ETV
attr interpolationmode linear
attr recordingmode vector
attr source "throughput(demuxFlow(merge(packetPushedIn, packetPulledIn)))"
attr title "flow specific incoming data rate"
attr unit bps
vector 137 MinimalAttackNetwork.masterClock.eth[0].phyLayer.inboundEmitter flowOutgoingPacketLengths:vector ETV
attr interpolationmode none
attr recordingmode vector
attr source "packetLength(demuxFlow(merge(packetPushedOut, packetPulledOut)))"
attr title "flow specific outgoing packet lengths"
attr unit b
vector 138 MinimalAttackNetwork.masterClock.eth[0].phyLayer.inboundEmitter flowOutgoingDataRate:vector ETV
attr interpolationmode linear
attr recordingmode vector
attr source "throughput(demuxFlow(merge(packetPushedOut, packetPulledOut)))"
attr title "flow specific outgoing data rate"
attr unit bps
vector 139 MinimalAttackNetwork.masterClock.eth[0].phyLayer.receiver throughput:vector ETV
attr interpolationmode linear
attr recordingmode vector
attr source throughput(receptionEnded)
attr title throughput
attr unit bps
vector 140 MinimalAttackNetwork.masterClock.eth[0].phyLayer.receiver receptionTime:vector ETV
attr interpolationmode none
attr recordingmode vector
attr source packetDuration(receptionEnded)
attr title "reception time"
attr unit s
vector 141 MinimalAttackNetwork.masterClock.eth[0].phyLayer.receiver flowReceptionTime:vector ETV
attr interpolationmode none
attr recordingmode vector
attr source packetDuration(demuxFlow(receptionEnded))
attr title "flow reception time"
attr unit s
vector 142 MinimalAttackNetwork.masterClock.eth[0] packetDropInterfaceDown:vector(packetBytes) ETV
attr interpolationmode none
attr recordingmode vector(packetBytes)
attr source packetDropReasonIsInterfaceDown(packetDropped)
attr title "packet drops: interface down, packetBytes"
vector 143 MinimalAttackNetwork.masterClock.eth[0] packetDropNoCarrier:vector(packetBytes) ETV
attr interpolationmode none
attr recordingmode vector(packetBytes)
attr source packetDropReasonIsNoCarrier(packetDropped)
attr title "packet drops: no carrier, packetBytes"
vector 144 MinimalAttackNetwork.masterClock.ipv4.ip packetDropAddressResolutionFailed:vector(packetBytes) ETV
attr interpolationmode none
attr recordingmode vector(packetBytes)
attr source packetDropReasonIsAddressResolutionFailed(packetDropped)
attr title "packet drop: address resolution failed, packetBytes"
vector 145 MinimalAttackNetwork.masterClock.ipv4.ip packetDropHopLimitReached:vector(packetBytes) ETV
attr interpolationmode none
attr recordingmode vector(packetBytes)
attr source packetDropReasonIsHopLimitReached(packetDropped)
attr title "packet drop: hop limit reached, packetBytes"
vector 146 MinimalAttackNetwork.masterClock.ipv4.ip packetDropForwardingDisabled:vector(packetBytes) ETV
attr interpolationmode none
attr recordingmode vector(packetBytes)
attr source packetDropReasonIsForwardingDisabled(packetDropped)
attr title "packet drop: forwarding disabled, packetBytes"
vector 147 MinimalAttackNetwork.masterClock.ipv4.ip packetDropNoInterfaceFound:vector(packetBytes) ETV
attr interpolationmode none
attr recordingmode vector(packetBytes)
attr source packetDropReasonIsNoInterfaceFound(packetDropped)
attr title "packet drop: no interface found, packetBytes"
vector 148 MinimalAttackNetwork.masterClock.ipv4.ip packetDropNoRouteFound:vector(packetBytes) ETV
attr interpolationmode none
attr recordingmode vector(packetBytes)
attr source packetDropReasonIsNoRouteFound(packetDropped)
attr title "packet drop: no route found, packetBytes"
vector 149 MinimalAttackNetwork.masterClock.ipv4.ip packetDropUndefined:vector(packetBytes) ETV
attr interpolationmode none
attr recordingmode vector(packetBytes)
attr source packetDropReasonIsUndefined(packetDropped)
attr title "packet drop: undefined, packetBytes"
vector 150 MinimalAttackNetwork.masterClock.udp packetSent:vector(packetBytes) ETV
attr interpolationmode none
attr recordingmode vector(packetBytes)
attr source packetSent
attr title "packets sent, packetBytes"
vector 151 MinimalAttackNetwork.masterClock.udp packetReceived:vector(packetBytes) ETV
attr interpolationmode none
attr recordingmode vector(packetBytes)
attr source packetReceived
attr title "packets received, packetBytes"
vector 152 MinimalAttackNetwork.masterClock.udp passedUpPk:vector(count) ETV
attr interpolationmode none
attr recordingmode vector(count)
attr source packetSentToUpper
attr title "packets passed up, count"
vector 153 MinimalAttackNetwork.masterClock.udp droppedPkWrongPort:vector(count) ETV
attr interpolationmode none
attr recordingmode vector(count)
attr source packetDropReasonIsNoPortFound(packetDropped)
attr title "packets dropped (wrong port), count"
vector 154 MinimalAttackNetwork.masterClock.udp droppedPkBadChecksum:vector(count) ETV
attr interpolationmode none
attr recordingmode vector(count)
attr source packetDropReasonIsIncorrectlyReceived(packetDropped)
attr title "packets dropped (checksum error), count"
vector 155 MinimalAttackNetwork.masterClock.gptp localTime:vector ETV
attr interpolationmode linear
attr recordingmode vector
vector 156 MinimalAttackNetwork.masterClock.gptp timeDifference:vector ETV
attr interpolationmode linear
attr recordingmode vector
vector 157 MinimalAttackNetwork.masterClock.gptp rateRatio:vector ETV
attr interpolationmode sample-hold
attr recordingmode vector
vector 158 MinimalAttackNetwork.masterClock.gptp peerDelay:vector ETV
attr interpolationmode sample-hold
attr recordingmode vector
vector 159 MinimalAttackNetwork.masterClock.gptp packetDropNotAddressedToUs:vector(packetBytes) ETV
attr interpolationmode none
attr recordingmode vector(packetBytes)
attr source packetDropReasonIsNotAddressedToUs(packetDropped)
attr title "packet drop: not addressed to us, packetBytes"
vector 160 MinimalAttackNetwork.centralSwitch.clock.oscillator driftRateChanged:vector ETV
attr interpolationmode sample-hold
attr recordingmode vector
attr title "Oscillator drift rate"
attr unit ppm
vector 161 MinimalAttackNetwork.centralSwitch.clock timeChanged:vector ETV
attr interpolationmode linear
attr recordingmode vector
attr title "Clock time"
vector 162 MinimalAttackNetwork.centralSwitch.gptp localTime:vector ETV
attr interpolationmode linear
attr recordingmode vector
vector 163 MinimalAttackNetwork.centralSwitch.gptp timeDifference:vector ETV
attr interpolationmode linear
attr recordingmode vector
vector 164 MinimalAttackNetwork.centralSwitch.gptp rateRatio:vector ETV
attr interpolationmode sample-hold
attr recordingmode vector
vector 165 MinimalAttackNetwork.centralSwitch.gptp peerDelay:vector ETV
attr interpolationmode sample-hold
attr recordingmode vector
vector 166 MinimalAttackNetwork.centralSwitch.gptp packetDropNotAddressedToUs:vector(packetBytes) ETV
attr interpolationmode none
attr recordingmode vector(packetBytes)
attr source packetDropReasonIsNotAddressedToUs(packetDropped)
attr title "packet drop: not addressed to us, packetBytes"
vector 167 MinimalAttackNetwork.centralSwitch.bridging.directionReverser.reverser incomingPacketLengths:vector ETV
attr interpolationmode none
attr recordingmode vector
attr source "packetLength(merge(packetPushedIn, packetPulledIn))"
attr title "incoming packet lengths"
attr unit b
vector 168 MinimalAttackNetwork.centralSwitch.bridging.directionReverser.reverser incomingDataRate:vector ETV
attr interpolationmode linear
attr recordingmode vector
attr source "throughput(merge(packetPushedIn, packetPulledIn))"
attr title "incoming data rate"
attr unit bps
vector 169 MinimalAttackNetwork.centralSwitch.bridging.directionReverser.reverser outgoingPacketLengths:vector ETV
attr interpolationmode none
attr recordingmode vector
attr source "packetLength(merge(packetPushedOut, packetPulledOut))"
attr title "outgoing packet lengths"
attr unit b
vector 170 MinimalAttackNetwork.centralSwitch.bridging.directionReverser.reverser outgoingDataRate:vector ETV
attr interpolationmode linear
attr recordingmode vector
attr source "throughput(merge(packetPushedOut, packetPulledOut))"
attr title "outgoing data rate"
attr unit bps
vector 171 MinimalAttackNetwork.centralSwitch.bridging.directionReverser.reverser flowIncomingPacketLengths:vector ETV
attr interpolationmode none
attr recordingmode vector
attr source "packetLength(demuxFlow(merge(packetPushedIn, packetPulledIn)))"
attr title "flow specific incoming packet lengths"
attr unit b
vector 172 MinimalAttackNetwork.centralSwitch.bridging.directionReverser.reverser flowIncomingDataRate:vector ETV
attr interpolationmode linear
attr recordingmode vector
attr source "throughput(demuxFlow(merge(packetPushedIn, packetPulledIn)))"
attr title "flow specific incoming data rate"
attr unit bps
vector 173 MinimalAttackNetwork.centralSwitch.bridging.directionReverser.reverser flowOutgoingPacketLengths:vector ETV
attr interpolationmode none
attr recordingmode vector
attr source "packetLength(demuxFlow(merge(packetPushedOut, packetPulledOut)))"
attr title "flow specific outgoing packet lengths"
attr unit b
vector 174 MinimalAttackNetwork.centralSwitch.bridging.directionReverser.reverser flowOutgoingDataRate:vector ETV
attr interpolationmode linear
attr recordingmode vector
attr source "throughput(demuxFlow(merge(packetPushedOut, packetPulledOut)))"
attr title "flow specific outgoing data rate"
attr unit bps
vector 175 MinimalAttackNetwork.centralSwitch.bridging.directionReverser.join packetLengths:vector ETV
attr interpolationmode none
attr recordingmode vector
attr source "packetLength(merge(packetPushed, packetPulled))"
attr title "packet lengths"
attr unit b
vector 176 MinimalAttackNetwork.centralSwitch.bridging.directionReverser.join dataRate:vector ETV
attr interpolationmode linear
attr recordingmode vector
attr source "throughput(merge(packetPushed, packetPulled))"
attr title "data rate"
attr unit bps
vector 177 MinimalAttackNetwork.centralSwitch.bridging.streamIdentifier.identifier incomingPacketLengths:vector ETV
attr interpolationmode none
attr recordingmode vector
attr source "packetLength(merge(packetPushedIn, packetPulledIn))"
attr title "incoming packet lengths"
attr unit b
vector 178 MinimalAttackNetwork.centralSwitch.bridging.streamIdentifier.identifier incomingDataRate:vector ETV
attr interpolationmode linear
attr recordingmode vector
attr source "throughput(merge(packetPushedIn, packetPulledIn))"
attr title "incoming data rate"
attr unit bps
vector 179 MinimalAttackNetwork.centralSwitch.bridging.streamIdentifier.identifier outgoingPacketLengths:vector ETV
attr interpolationmode none
attr recordingmode vector
attr source "packetLength(merge(packetPushedOut, packetPulledOut))"
attr title "outgoing packet lengths"
attr unit b
vector 180 MinimalAttackNetwork.centralSwitch.bridging.streamIdentifier.identifier outgoingDataRate:vector ETV
attr interpolationmode linear
attr recordingmode vector
attr source "throughput(merge(packetPushedOut, packetPulledOut))"
attr title "outgoing data rate"
attr unit bps
vector 181 MinimalAttackNetwork.centralSwitch.bridging.streamIdentifier.identifier flowIncomingPacketLengths:vector ETV
attr interpolationmode none
attr recordingmode vector
attr source "packetLength(demuxFlow(merge(packetPushedIn, packetPulledIn)))"
attr title "flow specific incoming packet lengths"
attr unit b
vector 182 MinimalAttackNetwork.centralSwitch.bridging.streamIdentifier.identifier flowIncomingDataRate:vector ETV
attr interpolationmode linear
attr recordingmode vector
attr source "throughput(demuxFlow(merge(packetPushedIn, packetPulledIn)))"
attr title "flow specific incoming data rate"
attr unit bps
vector 183 MinimalAttackNetwork.centralSwitch.bridging.streamIdentifier.identifier flowOutgoingPacketLengths:vector ETV
attr interpolationmode none
attr recordingmode vector
attr source "packetLength(demuxFlow(merge(packetPushedOut, packetPulledOut)))"
attr title "flow specific outgoing packet lengths"
attr unit b
vector 184 MinimalAttackNetwork.centralSwitch.bridging.streamIdentifier.identifier flowOutgoingDataRate:vector ETV
attr interpolationmode linear
attr recordingmode vector
attr source "throughput(demuxFlow(merge(packetPushedOut, packetPulledOut)))"
attr title "flow specific outgoing data rate"
attr unit bps
vector 185 MinimalAttackNetwork.centralSwitch.bridging.streamFilter.ingress.classifier packetLengths:vector ETV
attr interpolationmode none
attr recordingmode vector
attr source packetLength(packetPushed)
attr title "packet lengths"
attr unit b
vector 186 MinimalAttackNetwork.centralSwitch.bridging.streamFilter.ingress.classifier dataRate:vector ETV
attr interpolationmode linear
attr recordingmode vector
attr source throughput(packetPushed)
attr title "data rate"
attr unit bps
vector 187 MinimalAttackNetwork.centralSwitch.bridging.streamFilter.ingress.gate[0] incomingPacketLengths:vector ETV
attr interpolationmode none
attr recordingmode vector
attr source "packetLength(merge(packetPushedIn, packetPulledIn))"
attr title "incoming packet lengths"
attr unit b
vector 188 MinimalAttackNetwork.centralSwitch.bridging.streamFilter.ingress.gate[0] incomingDataRate:vector ETV
attr interpolationmode linear
attr recordingmode vector
attr source "throughput(merge(packetPushedIn, packetPulledIn))"
attr title "incoming data rate"
attr unit bps
vector 189 MinimalAttackNetwork.centralSwitch.bridging.streamFilter.ingress.gate[0] outgoingPacketLengths:vector ETV
attr interpolationmode none
attr recordingmode vector
attr source "packetLength(merge(packetPushedOut, packetPulledOut))"
attr title "outgoing packet lengths"
attr unit b
vector 190 MinimalAttackNetwork.centralSwitch.bridging.streamFilter.ingress.gate[0] outgoingDataRate:vector ETV
attr interpolationmode linear
attr recordingmode vector
attr source "throughput(merge(packetPushedOut, packetPulledOut))"
attr title "outgoing data rate"
attr unit bps
vector 191 MinimalAttackNetwork.centralSwitch.bridging.streamFilter.ingress.gate[0] flowIncomingPacketLengths:vector ETV
attr interpolationmode none
attr recordingmode vector
attr source "packetLength(demuxFlow(merge(packetPushedIn, packetPulledIn)))"
attr title "flow specific incoming packet lengths"
attr unit b
vector 192 MinimalAttackNetwork.centralSwitch.bridging.streamFilter.ingress.gate[0] flowIncomingDataRate:vector ETV
attr interpolationmode linear
attr recordingmode vector
attr source "throughput(demuxFlow(merge(packetPushedIn, packetPulledIn)))"
attr title "flow specific incoming data rate"
attr unit bps
vector 193 MinimalAttackNetwork.centralSwitch.bridging.streamFilter.ingress.gate[0] flowOutgoingPacketLengths:vector ETV
attr interpolationmode none
attr recordingmode vector
attr source "packetLength(demuxFlow(merge(packetPushedOut, packetPulledOut)))"
attr title "flow specific outgoing packet lengths"
attr unit b
vector 194 MinimalAttackNetwork.centralSwitch.bridging.streamFilter.ingress.gate[0] flowOutgoingDataRate:vector ETV
attr interpolationmode linear
attr recordingmode vector
attr source "throughput(demuxFlow(merge(packetPushedOut, packetPulledOut)))"
attr title "flow specific outgoing data rate"
attr unit bps
vector 195 MinimalAttackNetwork.centralSwitch.bridging.streamFilter.ingress.gate[0] gateState:vector ETV
attr enum CLOSED,OPEN
attr interpolationmode sample-hold
attr recordingmode vector
attr source gateStateChanged
attr title "gate state"
attr type enum
vector 196 MinimalAttackNetwork.centralSwitch.bridging.streamFilter.ingress.gate[1] incomingPacketLengths:vector ETV
attr interpolationmode none
attr recordingmode vector
attr source "packetLength(merge(packetPushedIn, packetPulledIn))"
attr title "incoming packet lengths"
attr unit b
vector 197 MinimalAttackNetwork.centralSwitch.bridging.streamFilter.ingress.gate[1] incomingDataRate:vector ETV
attr interpolationmode linear
attr recordingmode vector
attr source "throughput(merge(packetPushedIn, packetPulledIn))"
attr title "incoming data rate"
attr unit bps
vector 198 MinimalAttackNetwork.centralSwitch.bridging.streamFilter.ingress.gate[1] outgoingPacketLengths:vector ETV
attr interpolationmode none
attr recordingmode vector
attr source "packetLength(merge(packetPushedOut, packetPulledOut))"
attr title "outgoing packet lengths"
attr unit b
vector 199 MinimalAttackNetwork.centralSwitch.bridging.streamFilter.ingress.gate[1] outgoingDataRate:vector ETV
attr interpolationmode linear
attr recordingmode vector
attr source "throughput(merge(packetPushedOut, packetPulledOut))"
attr title "outgoing data rate"
attr unit bps
vector 200 MinimalAttackNetwork.centralSwitch.bridging.streamFilter.ingress.gate[1] flowIncomingPacketLengths:vector ETV
attr interpolationmode none
attr recordingmode vector
attr source "packetLength(demuxFlow(merge(packetPushedIn, packetPulledIn)))"
attr title "flow specific incoming packet lengths"
attr unit b
vector 201 MinimalAttackNetwork.centralSwitch.bridging.streamFilter.ingress.gate[1] flowIncomingDataRate:vector ETV
attr interpolationmode linear
attr recordingmode vector
attr source "throughput(demuxFlow(merge(packetPushedIn, packetPulledIn)))"
attr title "flow specific incoming data rate"
attr unit bps
vector 202 MinimalAttackNetwork.centralSwitch.bridging.streamFilter.ingress.gate[1] flowOutgoingPacketLengths:vector ETV
attr interpolationmode none
attr recordingmode vector
attr source "packetLength(demuxFlow(merge(packetPushedOut, packetPulledOut)))"
attr title "flow specific outgoing packet lengths"
attr unit b
vector 203 MinimalAttackNetwork.centralSwitch.bridging.streamFilter.ingress.gate[1] flowOutgoingDataRate:vector ETV
attr interpolationmode linear
attr recordingmode vector
attr source "throughput(demuxFlow(merge(packetPushedOut, packetPulledOut)))"
attr title "flow specific outgoing data rate"
attr unit bps
vector 204 MinimalAttackNetwork.centralSwitch.bridging.streamFilter.ingress.gate[1] gateState:vector ETV
attr enum CLOSED,OPEN
attr interpolationmode sample-hold
attr recordingmode vector
attr source gateStateChanged
attr title "gate state"
attr type enum
vector 205 MinimalAttackNetwork.centralSwitch.bridging.streamFilter.ingress.gate[2] incomingPacketLengths:vector ETV
attr interpolationmode none
attr recordingmode vector
attr source "packetLength(merge(packetPushedIn, packetPulledIn))"
attr title "incoming packet lengths"
attr unit b
vector 206 MinimalAttackNetwork.centralSwitch.bridging.streamFilter.ingress.gate[2] incomingDataRate:vector ETV
attr interpolationmode linear
attr recordingmode vector
attr source "throughput(merge(packetPushedIn, packetPulledIn))"
attr title "incoming data rate"
attr unit bps
vector 207 MinimalAttackNetwork.centralSwitch.bridging.streamFilter.ingress.gate[2] outgoingPacketLengths:vector ETV
attr interpolationmode none
attr recordingmode vector
attr source "packetLength(merge(packetPushedOut, packetPulledOut))"
attr title "outgoing packet lengths"
attr unit b
vector 208 MinimalAttackNetwork.centralSwitch.bridging.streamFilter.ingress.gate[2] outgoingDataRate:vector ETV
attr interpolationmode linear
attr recordingmode vector
attr source "throughput(merge(packetPushedOut, packetPulledOut))"
attr title "outgoing data rate"
attr unit bps
[...]
2469	145433	0.436	1800
2469	145434	0.436	0
2469	145750	0.437	1800
2469	145751	0.437	0
2469	146067	0.438	1800
2469	146068	0.438	0
2469	146384	0.439	1800
2469	146385	0.439	0
2469	146706	0.44	1800
2469	146708	0.44	0
2469	147057	0.441	1800
2469	147058	0.441	0
2469	147459	0.442	1800
2469	147460	0.442	0
2469	147776	0.443	1800
2469	147777	0.443	0
2469	148093	0.444	1800
2469	148094	0.444	0
2469	148410	0.445	1800
2469	148411	0.445	0
2469	148727	0.446	1800
2469	148728	0.446	0
2469	149044	0.447	1800
2469	149045	0.447	0
2469	149361	0.448	1800
2469	149362	0.448	0
2469	149678	0.449	1800
2469	149679	0.449	0
2469	150007	0.45	1568
2469	150010	0.45	3368
2469	150013	0.45	1800
2469	150068	0.45001728	0
2469	150277	0.450527136957	576
2469	150278	0.450527136957	0
2469	150421	0.451	1800
2469	150422	0.451	0
2469	150937	0.452	1800
2469	150938	0.452	0
2469	151264	0.453	1800
2469	151265	0.453	0
2469	151581	0.454	1800
2469	151582	0.454	0
2469	151898	0.455	1800
2469	151899	0.455	0
2469	152215	0.456	1800
2469	152216	0.456	0
2469	152532	0.457	1800
2469	152533	0.457	0
2469	152849	0.458	1800
2469	152850	0.458	0
2469	153166	0.459	1800
2469	153167	0.459	0
2469	153488	0.46	1800
2469	153490	0.46	0
2469	153839	0.461	1800
2469	153840	0.461	0
2469	154241	0.462	1800
2469	154242	0.462	0
2469	154558	0.463	1800
2469	154559	0.463	0
2469	154875	0.464	1800
2469	154876	0.464	0
2469	155192	0.465	1800
2469	155193	0.465	0
2469	155509	0.466	1800
2469	155510	0.466	0
2469	155826	0.467	1800
2469	155827	0.467	0
2469	156143	0.468	1800
2469	156144	0.468	0
2469	156460	0.469	1800
2469	156461	0.469	0
2469	156782	0.47	1800
2469	156784	0.47	0
2469	157133	0.471	1800
2469	157134	0.471	0
2469	157535	0.472	1800
2469	157536	0.472	0
2469	157852	0.473	1800
2469	157853	0.473	0
2469	158169	0.474	1800
2469	158170	0.474	0
2469	158486	0.475	1800
2469	158487	0.475	0
2469	158803	0.476	1800
2469	158804	0.476	0
2469	159120	0.477	1800
2469	159121	0.477	0
2469	159437	0.478	1800
2469	159438	0.478	0
2469	159754	0.479	1800
2469	159755	0.479	0
2469	160076	0.48	1800
2469	160078	0.48	0
2469	160427	0.481	1800
2469	160428	0.481	0
2469	160829	0.482	1800
2469	160830	0.482	0
2469	161146	0.483	1800
2469	161147	0.483	0
2469	161463	0.484	1800
2469	161464	0.484	0
2469	161780	0.485	1800
2469	161781	0.485	0
2469	162097	0.486	1800
2469	162098	0.486	0
2469	162414	0.487	1800
2469	162415	0.487	0
2469	162731	0.488	1800
2469	162732	0.488	0
2469	163048	0.489	1800
2469	163049	0.489	0
2469	163370	0.49	1800
2469	163372	0.49	0
2469	163721	0.491	1800
2469	163722	0.491	0
2469	164123	0.492	1800
2469	164124	0.492	0
2469	164440	0.493	1800
2469	164441	0.493	0
2469	164757	0.494	1800
2469	164758	0.494	0
2469	165074	0.495	1800
2469	165075	0.495	0
2469	165391	0.496	1800
2469	165392	0.496	0
2469	165708	0.497	1800
2469	165709	0.497	0
2469	166025	0.498	1800
2469	166026	0.498	0
2469	166342	0.499	1800
2469	166343	0.499	0
2469	166671	0.5	1568
2469	166674	0.5	3368
2469	166677	0.5	1800
2470	43	0	0
2470	105	0.0000196	1.96e-05
2470	446	0.001	0
2470	559	0.0010196	1.9599966e-05
2470	982	0.002	0
2470	1299	0.003	0
2470	1616	0.004	0
2470	1933	0.005	0
2470	2250	0.006	0
2470	2567	0.007	0
2470	2884	0.008	0
2470	3201	0.009	0
2470	3524	0.01	0
2470	3874	0.011	0
2470	4276	0.012	0
2470	4593	0.013	0
2470	4910	0.014	0
2470	5227	0.015	0
2470	5544	0.016	0
2470	5861	0.017	0
2470	6178	0.018	0
2470	6495	0.019	0
2470	6818	0.02	0
2470	7168	0.021	0
2470	7570	0.022	0
2470	7887	0.023	0
2470	8204	0.024	0
2470	8521	0.025	0
2470	8838	0.026	0
2470	9155	0.027	0
2470	9472	0.028	0
2470	9789	0.029	0
2470	10112	0.03	0
2470	10462	0.031	0
2470	10864	0.032	0
2470	11181	0.033	0
2470	11498	0.034	0
2470	11815	0.035	0
2470	12132	0.036	0
2470	12449	0.037	0
2470	12766	0.038	0
2470	13083	0.039	0
2470	13406	0.04	0
2470	13756	0.041	0
2470	14158	0.042	0
2470	14475	0.043	0
2470	14792	0.044	0
2470	15109	0.045	0
2470	15426	0.046	0
2470	15743	0.047	0
2470	16060	0.048	0
2470	16377	0.049	0
2470	16711	0.05	0
2470	16766	0.05001728	1.728e-05
2470	17110	0.051	0
2470	17223	0.0510196	1.9598226e-05
2470	17646	0.052	0
2470	17963	0.053	0
2470	18280	0.054	0
2470	18597	0.055	0
2470	18914	0.056	0
2470	19231	0.057	0
2470	19548	0.058	0
2470	19865	0.059	0
2470	20188	0.06	0
2470	20538	0.061	0
2470	20940	0.062	0
2470	21257	0.063	0
2470	21574	0.064	0
2470	21891	0.065	0
2470	22208	0.066	0
2470	22525	0.067	0
2470	22842	0.068	0
2470	23159	0.069	0
2470	23482	0.07	0
2470	23832	0.071	0
2470	24234	0.072	0
2470	24551	0.073	0
2470	24868	0.074	0
2470	25185	0.075	0
2470	25502	0.076	0
2470	25819	0.077	0
2470	26136	0.078	0
2470	26453	0.079	0
2470	26776	0.08	0
2470	27126	0.081	0
2470	27528	0.082	0
2470	27845	0.083	0
2470	28162	0.084	0
2470	28479	0.085	0
2470	28796	0.086	0
2470	29113	0.087	0
2470	29430	0.088	0
2470	29747	0.089	0
2470	30070	0.09	0
2470	30420	0.091	0
2470	30822	0.092	0
2470	31139	0.093	0
2470	31456	0.094	0
2470	31773	0.095	0
2470	32090	0.096	0
2470	32407	0.097	0
2470	32724	0.098	0
2470	33041	0.099	0
2470	33375	0.1	0
2470	33430	0.10001728	1.728e-05
2470	33712	0.100999950503	0
2470	33793	0.101007310503	7.310503e-06
2470	34308	0.102	0
2470	34625	0.103	0
2470	34942	0.104	0
2470	35259	0.105	0
2470	35576	0.106	0
2470	35893	0.107	0
2470	36210	0.108	0
2470	36527	0.109	0
2470	36850	0.11	0
2470	37200	0.111	0
2470	37602	0.112	0
2470	37919	0.113	0
2470	38236	0.114	0
2470	38553	0.115	0
2470	38870	0.116	0
2470	39187	0.117	0
2470	39504	0.118	0
2470	39821	0.119	0
2470	40144	0.12	0
2470	40494	0.121	0
2470	40896	0.122	0
2470	41213	0.123	0
2470	41530	0.124	0
2470	41847	0.125	0
2470	42164	0.126	0
2470	42481	0.127	0
2470	42798	0.128	0
2470	43115	0.129	0
2470	43438	0.13	0
2470	43788	0.131	0
2470	44190	0.132	0
2470	44507	0.133	0
2470	44824	0.134	0
2470	45141	0.135	0
2470	45458	0.136	0
2470	45775	0.137	0
2470	46092	0.138	0
2470	46409	0.139	0
2470	46732	0.14	0
2470	47082	0.141	0
2470	47484	0.142	0
2470	47801	0.143	0
2470	48118	0.144	0
2470	48435	0.145	0
2470	48752	0.146	0
2470	49069	0.147	0
2470	49386	0.148	0
2470	49703	0.149	0
2470	50037	0.15	0
2470	50092	0.15001728	1.728e-05
2470	50374	0.150999950605	0
2470	50455	0.151007310605	7.310605e-06
2470	50970	0.152	0
2470	51287	0.153	0
2470	51604	0.154	0
2470	51921	0.155	0
2470	52238	0.156	0
2470	52555	0.157	0
2470	52872	0.158	0
2470	53189	0.159	0
2470	53512	0.16	0
2470	53862	0.161	0
2470	54264	0.162	0
2470	54581	0.163	0
2470	54898	0.164	0
2470	55215	0.165	0
2470	55532	0.166	0
2470	55849	0.167	0
2470	56166	0.168	0
2470	56483	0.169	0
2470	56806	0.17	0
2470	57156	0.171	0
2470	57558	0.172	0
2470	57875	0.173	0
2470	58192	0.174	0
2470	58509	0.175	0
2470	58826	0.176	0
2470	59143	0.177	0
2470	59460	0.178	0
2470	59777	0.179	0
2470	60100	0.18	0
2470	60450	0.181	0
2470	60852	0.182	0
2470	61169	0.183	0
2470	61486	0.184	0
2470	61803	0.185	0
2470	62120	0.186	0
2470	62437	0.187	0
2470	62754	0.188	0
2470	63071	0.189	0
2470	63394	0.19	0
2470	63744	0.191	0
2470	64146	0.192	0
2470	64463	0.193	0
2470	64780	0.194	0
2470	65097	0.195	0
2470	65414	0.196	0
2470	65731	0.197	0
2470	66048	0.198	0
2470	66365	0.199	0
2470	66699	0.2	0
2470	66754	0.20001728	1.728e-05
2470	67095	0.201	0
2470	67164	0.2010196	1.7669253e-05
2470	67616	0.202	0
2470	67948	0.203	0
2470	68265	0.204	0
2470	68582	0.205	0
2470	68899	0.206	0
2470	69216	0.207	0
2470	69533	0.208	0
2470	69850	0.209	0
2470	70173	0.21	0
2470	70523	0.211	0
2470	70925	0.212	0
2470	71242	0.213	0
2470	71559	0.214	0
2470	71876	0.215	0
2470	72193	0.216	0
2470	72510	0.217	0
2470	72827	0.218	0
2470	73144	0.219	0
2470	73467	0.22	0
2470	73817	0.221	0
2470	74219	0.222	0
2470	74536	0.223	0
2470	74853	0.224	0
2470	75170	0.225	0
2470	75487	0.226	0
2470	75804	0.227	0
2470	76121	0.228	0
2470	76438	0.229	0
2470	76761	0.23	0
2470	77111	0.231	0
2470	77513	0.232	0
2470	77830	0.233	0
2470	78147	0.234	0
2470	78464	0.235	0
2470	78781	0.236	0
2470	79098	0.237	0
2470	79415	0.238	0
2470	79732	0.239	0
2470	80055	0.24	0
2470	80405	0.241	0
2470	80807	0.242	0
2470	81124	0.243	0
2470	81441	0.244	0
2470	81758	0.245	0
2470	82075	0.246	0
2470	82392	0.247	0
2470	82709	0.248	0
2470	83026	0.249	0
2470	83360	0.25	0
2470	83415	0.25001728	1.728e-05
2470	83756	0.251	0
2470	83812	0.2510196	1.569324e-05
2470	84272	0.252	0
2470	84609	0.253	0
2470	84926	0.254	0
2470	85243	0.255	0
2470	85560	0.256	0
2470	85877	0.257	0
2470	86194	0.258	0
2470	86511	0.259	0
2470	86834	0.26	0
2470	87184	0.261	0
2470	87586	0.262	0
2470	87903	0.263	0
2470	88220	0.264	0
2470	88537	0.265	0
2470	88854	0.266	0
2470	89171	0.267	0
2470	89488	0.268	0
2470	89805	0.269	0
2470	90128	0.27	0
2470	90478	0.271	0
2470	90880	0.272	0
2470	91197	0.273	0
2470	91514	0.274	0
2470	91831	0.275	0
2470	92148	0.276	0
2470	92465	0.277	0
2470	92782	0.278	0
2470	93099	0.279	0
2470	93422	0.28	0
2470	93772	0.281	0
2470	94174	0.282	0
2470	94491	0.283	0
2470	94808	0.284	0
2470	95125	0.285	0
2470	95442	0.286	0
2470	95759	0.287	0
2470	96076	0.288	0
2470	96393	0.289	0
2470	96716	0.29	0
2470	97066	0.291	0
2470	97468	0.292	0
2470	97785	0.293	0
2470	98102	0.294	0
2470	98419	0.295	0
2470	98736	0.296	0
2470	99053	0.297	0
2470	99370	0.298	0
2470	99687	0.299	0
2470	100021	0.3	0
2470	100076	0.30001728	1.728e-05
2470	100286	0.300531564561	0
2470	100427	0.301	0
2470	100956	0.302	0
2470	101273	0.303	0
2470	101590	0.304	0
2470	101907	0.305	0
2470	102224	0.306	0
2470	102541	0.307	0
2470	102858	0.308	0
2470	103175	0.309	0
2470	103498	0.31	0
2470	103848	0.311	0
2470	104250	0.312	0
2470	104567	0.313	0
2470	104884	0.314	0
2470	105201	0.315	0
2470	105518	0.316	0
2470	105835	0.317	0
2470	106152	0.318	0
2470	106469	0.319	0
2470	106792	0.32	0
2470	107142	0.321	0
2470	107544	0.322	0
2470	107861	0.323	0
2470	108178	0.324	0
2470	108495	0.325	0
2470	108812	0.326	0
2470	109129	0.327	0
2470	109446	0.328	0
2470	109763	0.329	0
2470	110086	0.33	0
2470	110436	0.331	0
2470	110838	0.332	0
2470	111155	0.333	0
2470	111472	0.334	0
2470	111789	0.335	0
2470	112106	0.336	0
2470	112423	0.337	0
2470	112740	0.338	0
2470	113057	0.339	0
2470	113380	0.34	0
2470	113730	0.341	0
2470	114132	0.342	0
2470	114449	0.343	0
2470	114766	0.344	0
2470	115083	0.345	0
2470	115400	0.346	0
2470	115717	0.347	0
2470	116034	0.348	0
2470	116351	0.349	0
2470	116685	0.35	0
2470	116740	0.35001728	1.728e-05
2470	116950	0.350525178405	0
2470	117091	0.351	0
2470	117620	0.352	0
2470	117937	0.353	0
2470	118254	0.354	0
2470	118571	0.355	0
2470	118888	0.356	0
2470	119205	0.357	0
2470	119522	0.358	0
2470	119839	0.359	0
2470	120162	0.36	0
2470	120512	0.361	0
2470	120914	0.362	0
2470	121231	0.363	0
2470	121548	0.364	0
2470	121865	0.365	0
2470	122182	0.366	0
2470	122499	0.367	0
2470	122816	0.368	0
2470	123133	0.369	0
2470	123456	0.37	0
2470	123806	0.371	0
2470	124208	0.372	0
2470	124525	0.373	0
2470	124842	0.374	0
2470	125159	0.375	0
2470	125476	0.376	0
2470	125793	0.377	0
2470	126110	0.378	0
2470	126427	0.379	0
2470	126750	0.38	0
2470	127100	0.381	0
2470	127502	0.382	0
2470	127819	0.383	0
2470	128136	0.384	0
2470	128453	0.385	0
2470	128770	0.386	0
2470	129087	0.387	0
2470	129404	0.388	0
2470	129721	0.389	0
2470	130044	0.39	0
2470	130394	0.391	0
2470	130796	0.392	0
2470	131113	0.393	0
2470	131430	0.394	0
2470	131747	0.395	0
2470	132064	0.396	0
2470	132381	0.397	0
2470	132698	0.398	0
2470	133015	0.399	0
2470	133349	0.4	0
2470	133404	0.40001728	1.728e-05
2470	133614	0.400526157682	0
2470	133755	0.401	0
2470	134284	0.402	0
2470	134601	0.403	0
2470	134918	0.404	0
2470	135235	0.405	0
2470	135552	0.406	0
2470	135869	0.407	0
2470	136186	0.408	0
2470	136503	0.409	0
2470	136826	0.41	0
2470	137176	0.411	0
2470	137578	0.412	0
2470	137895	0.413	0
2470	138212	0.414	0
2470	138529	0.415	0
2470	138846	0.416	0
2470	139163	0.417	0
2470	139480	0.418	0
2470	139797	0.419	0
2470	140120	0.42	0
2470	140470	0.421	0
2470	140872	0.422	0
2470	141189	0.423	0
2470	141506	0.424	0
2470	141823	0.425	0
2470	142140	0.426	0
2470	142457	0.427	0
2470	142774	0.428	0
2470	143091	0.429	0
2470	143414	0.43	0
2470	143764	0.431	0
2470	144166	0.432	0
2470	144483	0.433	0
2470	144800	0.434	0
2470	145117	0.435	0
2470	145434	0.436	0
2470	145751	0.437	0
2470	146068	0.438	0
2470	146385	0.439	0
2470	146708	0.44	0
2470	147058	0.441	0
2470	147460	0.442	0
2470	147777	0.443	0
2470	148094	0.444	0
2470	148411	0.445	0
2470	148728	0.446	0
2470	149045	0.447	0
2470	149362	0.448	0
2470	149679	0.449	0
2470	150013	0.45	0
2470	150068	0.45001728	1.728e-05
2470	150278	0.450527136957	0
2470	150422	0.451	0
2470	150938	0.452	0
2470	151265	0.453	0
2470	151582	0.454	0
2470	151899	0.455	0
2470	152216	0.456	0
2470	152533	0.457	0
2470	152850	0.458	0
2470	153167	0.459	0
2470	153490	0.46	0
2470	153840	0.461	0
2470	154242	0.462	0
2470	154559	0.463	0
2470	154876	0.464	0
2470	155193	0.465	0
2470	155510	0.466	0
2470	155827	0.467	0
2470	156144	0.468	0
2470	156461	0.469	0
2470	156784	0.47	0
2470	157134	0.471	0
2470	157536	0.472	0
2470	157853	0.473	0
2470	158170	0.474	0
2470	158487	0.475	0
2470	158804	0.476	0
2470	159121	0.477	0
2470	159438	0.478	0
2470	159755	0.479	0
2470	160078	0.48	0
2470	160428	0.481	0
2470	160830	0.482	0
2470	161147	0.483	0
2470	161464	0.484	0
2470	161781	0.485	0
2470	162098	0.486	0
2470	162415	0.487	0
2470	162732	0.488	0
2470	163049	0.489	0
2470	163372	0.49	0
2470	163722	0.491	0
2470	164124	0.492	0
2470	164441	0.493	0
2470	164758	0.494	0
2470	165075	0.495	0
2470	165392	0.496	0
2470	165709	0.497	0
2470	166026	0.498	0
2470	166343	0.499	0
2470	166677	0.5	0
2529	31774	0.09501864	-453077.64288213
2529	63756	0.19101864	1911333.3333333
2529	95760	0.28701864	1911333.3333333
2529	127820	0.38301864	1911333.3333333
2529	159756	0.47901864	1911333.3333333
2529	166678	0.5	1776815.2302806
2553	90144	0.270014004	-387849.70194446
2553	123472	0.370014004	307040
2553	156800	0.470014004	319680
2553	166678	0.5	265724.03998186
2690	0	0	0
2690	0	0	0
2690	0	0	0
2690	0	0	0
2690	0	0	0
2690	41	0	1
2690	44	0	0
2690	451	0.001000000169	1
2690	452	0.001000000169	0
2690	16706	0.05	1
2690	16709	0.05	0
2690	17115	0.051000008622	1
2690	17116	0.051000008622	0
2690	33370	0.1	1
2690	33373	0.1	0
2690	34012	0.101471583818	1
2690	34013	0.101471583818	0
2690	50032	0.15	1
2690	50035	0.15	0
2690	50674	0.151473568196	1
2690	50675	0.151473568196	0
2690	66694	0.2	1
2690	66697	0.2	0
2690	67314	0.201473568196	1
2690	67315	0.201473568196	0
2690	83355	0.25	1
2690	83358	0.25	0
2690	83968	0.251473568208	1
2690	83969	0.251473568208	0
2690	100016	0.3	1
2690	100019	0.3	0
2690	100429	0.301001911563	1
2690	100430	0.301001911563	0
2690	116680	0.35	1
2690	116683	0.35	0
2690	117093	0.351002874578	1
2690	117094	0.351002874578	0
2690	133344	0.4	1
2690	133347	0.4	0
2690	133757	0.401003837609	1
2690	133758	0.401003837609	0
2690	150008	0.45	1
2690	150011	0.45	0
2690	150359	0.450997451455	1
2690	150360	0.450997451455	0
2690	166672	0.5	1
2690	166675	0.5	0
2691	0	0	0
2691	0	0	0
2691	0	0	0
2691	0	0	0
2691	0	0	0
2691	41	0	1360
2691	44	0	0
2691	451	0.001000000169	576
2691	452	0.001000000169	0
2691	16706	0.05	1360
2691	16709	0.05	0
2691	17115	0.051000008622	576
2691	17116	0.051000008622	0
2691	33370	0.1	1360
2691	33373	0.1	0
2691	34012	0.101471583818	576
2691	34013	0.101471583818	0
2691	50032	0.15	1360
2691	50035	0.15	0
2691	50674	0.151473568196	576
2691	50675	0.151473568196	0
2691	66694	0.2	1360
2691	66697	0.2	0
2691	67314	0.201473568196	576
2691	67315	0.201473568196	0
2691	83355	0.25	1360
2691	83358	0.25	0
2691	83968	0.251473568208	576
2691	83969	0.251473568208	0
2691	100016	0.3	1360
2691	100019	0.3	0
2691	100429	0.301001911563	576
2691	100430	0.301001911563	0
2691	116680	0.35	1360
2691	116683	0.35	0
2691	117093	0.351002874578	576
2691	117094	0.351002874578	0
2691	133344	0.4	1360
2691	133347	0.4	0
2691	133757	0.401003837609	576
2691	133758	0.401003837609	0
2691	150008	0.45	1360
2691	150011	0.45	0
2691	150359	0.450997451455	576
2691	150360	0.450997451455	0
2691	166672	0.5	1360
2691	166675	0.5	0
2692	44	0	0
2692	452	0.001000000169	0
2692	16709	0.05	0
2692	17116	0.051000008622	0
2692	33373	0.1	0
2692	34013	0.101471583818	0
2692	50035	0.15	0
2692	50675	0.151473568196	0
2692	66697	0.2	0
2692	67315	0.201473568196	0
2692	83358	0.25	0
2692	83969	0.251473568208	0
2692	100019	0.3	0
2692	100430	0.301001911563	0
2692	116683	0.35	0
2692	117094	0.351002874578	0
2692	133347	0.4	0
2692	133758	0.401003837609	0
2692	150011	0.45	0
2692	150360	0.450997451455	0
2692	166675	0.5	0
2775	23900	0.071022130564	-369716.04201522
2775	48470	0.14503738	2190359.4358644
2775	72862	0.21803738	2198465.7534247
2775	97308	0.29151493	2180693.2865889
2775	121583	0.36403738	2212942.3371659
2775	146725	0.440014004	2139710.7615627
2775	166678	0.5	2157570.2435615
2928	0	0	0
2928	0	0	0
2928	0	0	0
2928	0	0	0
2928	0	0	0
2928	463	0.001000019698	1
2928	464	0.001000019698	0
2928	17132	0.051001004631	1
2928	17133	0.051001004631	0
2928	34018	0.101471808559	1
2928	34019	0.101471808559	0
2928	50680	0.151473792947	1
2928	50681	0.151473792947	0
2928	67320	0.201473792947	1
2928	67321	0.201473792947	0
2928	83974	0.251473792948	1
2928	83975	0.251473792948	0
2928	100435	0.301002136308	1
2928	100436	0.301002136308	0
2928	117099	0.351003099321	1
2928	117100	0.351003099321	0
2928	133763	0.401004062352	1
2928	133764	0.401004062352	0
2928	150432	0.451005025378	1
2928	150433	0.451005025378	0
2929	0	0	0
2929	0	0	0
2929	0	0	0
2929	0	0	0
2929	0	0	0
2929	463	0.001000019698	576
2929	464	0.001000019698	0
2929	17132	0.051001004631	576
2929	17133	0.051001004631	0
2929	34018	0.101471808559	576
2929	34019	0.101471808559	0
2929	50680	0.151473792947	576
2929	50681	0.151473792947	0
2929	67320	0.201473792947	576
2929	67321	0.201473792947	0
2929	83974	0.251473792948	576
2929	83975	0.251473792948	0
2929	100435	0.301002136308	576
2929	100436	0.301002136308	0
2929	117099	0.351003099321	576
2929	117100	0.351003099321	0
2929	133763	0.401004062352	576
2929	133764	0.401004062352	0
2929	150432	0.451005025378	576
2929	150433	0.451005025378	0
2930	464	0.001000019698	0
2930	17133	0.051001004631	0
2930	34019	0.101471808559	0
2930	50681	0.151473792947	0
2930	67321	0.201473792947	0
2930	83975	0.251473792948	0
2930	100436	0.301002136308	0
2930	117100	0.351003099321	0
2930	133764	0.401004062352	0
2930	150433	0.451005025378	0
3013	23901	0.071022130564	-368746.29501977
3013	48471	0.14503738	2187549.2041678
3013	72863	0.21803738	2192767.1232877
3013	97309	0.29151493	2177862.4899714
3013	121584	0.36403738	2207206.1823615
3013	146726	0.440014004	2136973.0774034
3013	166678	0.5	2154102.767586
3142	0	0	0
3142	0	0	0
3142	0	0	0
3142	0	0	0
3142	0	0	0
3142	457	0.001000014647	1
3142	458	0.001000014647	0
3142	17126	0.051000746998	1
3142	17127	0.051000746998	0
3142	34015	0.101471750429	1
3142	34016	0.101471750429	0
3142	50677	0.151473734806	1
3142	50678	0.151473734806	0
3142	67317	0.201473734806	1
3142	67318	0.201473734806	0
3142	83971	0.251473734812	1
3142	83972	0.251473734812	0
3142	100432	0.301002078175	1
3142	100433	0.301002078175	0
3142	117096	0.351003041189	1
3142	117097	0.351003041189	0
3142	133760	0.401004004221	1
3142	133761	0.401004004221	0
3142	150429	0.451004967241	1
3142	150430	0.451004967241	0
3143	0	0	0
3143	0	0	0
3143	0	0	0
3143	0	0	0
3143	0	0	0
3143	457	0.001000014647	576
3143	458	0.001000014647	0
3143	17126	0.051000746998	576
3143	17127	0.051000746998	0
3143	34015	0.101471750429	576
3143	34016	0.101471750429	0
3143	50677	0.151473734806	576
3143	50678	0.151473734806	0
3143	67317	0.201473734806	576
3143	67318	0.201473734806	0
3143	83971	0.251473734812	576
3143	83972	0.251473734812	0
3143	100432	0.301002078175	576
3143	100433	0.301002078175	0
3143	117096	0.351003041189	576
3143	117097	0.351003041189	0
3143	133760	0.401004004221	576
3143	133761	0.401004004221	0
3143	150429	0.451004967241	576
3143	150430	0.451004967241	0
3144	458	0.001000014647	0
3144	17127	0.051000746998	0
3144	34016	0.101471750429	0
3144	50678	0.151473734806	0
3144	67318	0.201473734806	0
3144	83972	0.251473734812	0
3144	100433	0.301002078175	0
3144	117097	0.351003041189	0
3144	133761	0.401004004221	0
3144	150430	0.451004967241	0
3227	23902	0.071022130564	-368746.29501977
3227	48472	0.14503738	2187549.2041678
3227	72864	0.21803738	2192767.1232877
3227	97310	0.29151493	2177862.4899714
3227	121585	0.36403738	2207206.1823615
3227	146727	0.440014004	2136973.0774034
3227	166678	0.5	2154102.767586

