version 3
run Baseline-2-20250831-17:24:39-460755
attr configname Baseline
attr datetime 20250831-17:24:39
attr datetimef 20250831-172439
attr experiment Baseline
attr inifile omnetpp.ini
attr iterationvars ""
attr iterationvarsd ""
attr iterationvarsf ""
attr measurement ""
attr network MinimalAttackNetwork
attr processid 460755
attr repetition 2
attr replication #2
attr resultdir results_flat
attr runnumber 2
attr seedset 2
config image-path ../../../../SharedRoom/omnetpp-ml-workspace/inet4.5/images
config extends General
config description "Baseline: Normal TSN operation without attacks (Label: normal)"
config *.centralSwitch.bridging.streamFilter.ingress.hasDefaultPath false
config *.criticalSensor.numApps 2
config *.criticalSensor.app[0].typename UdpSourceApp
config *.criticalSensor.app[0].source.packetNameFormat "\"CRITICAL_SENSOR-%c\""
config *.criticalSensor.app[0].source.packetLength 175B
config *.criticalSensor.app[0].source.productionInterval 1ms
config *.criticalSensor.app[0].source.startTime 10ms
config *.criticalSensor.app[0].io.destAddress "\"mainECU\""
config *.criticalSensor.app[0].io.destPort 5000
config *.criticalSensor.app[1].typename UdpSourceApp
config *.criticalSensor.app[1].source.packetNameFormat "\"SENSOR_MON-%c\""
config *.criticalSensor.app[1].source.packetLength 150B
config *.criticalSensor.app[1].source.productionInterval 50ms
config *.criticalSensor.app[1].source.startTime 12ms
config *.criticalSensor.app[1].io.destAddress "\"display\""
config *.criticalSensor.app[1].io.destPort 7000
config *.display.numApps 3
config *.display.app[0].typename UdpSinkApp
config *.display.app[0].io.localPort 6000
config *.display.app[1].typename UdpSinkApp
config *.display.app[1].io.localPort 7000
config *.display.app[2].typename UdpSourceApp
config *.display.app[2].source.packetNameFormat "\"DISPLAY_UPDATE-%c\""
config *.display.app[2].source.packetLength 120B
config *.display.app[2].source.productionInterval 50ms
config *.display.app[2].source.startTime 15ms
config *.display.app[2].io.destAddress "\"mainECU\""
config *.display.app[2].io.destPort 6003
config *.mainECU.numApps 3
config *.mainECU.app[0].typename UdpSinkApp
config *.mainECU.app[0].io.localPort 5000
config *.mainECU.app[1].typename UdpSourceApp
config *.mainECU.app[1].source.packetNameFormat "\"STATUS_UPDATE-%c\""
config *.mainECU.app[1].source.packetLength 100B
config *.mainECU.app[1].source.productionInterval 10ms
config *.mainECU.app[1].source.startTime 20ms
config *.mainECU.app[1].io.destAddress "\"display\""
config *.mainECU.app[1].io.destPort 6000
config *.mainECU.app[2].typename UdpSinkApp
config *.mainECU.app[2].io.localPort 6003
config network MinimalAttackNetwork
config sim-time-limit 500ms
config description "Minimal TSN attack scenarios for ML training (500ms)"
config cmdenv-interactive false
config repeat 10
config seed-set 2
config *.dataCollector.outputFile "\"results_flat/tsn_signals_Baseline-#2.csv\""
config user-interface Cmdenv
config *.masterClock.eth[*].bitrate 100Mbps
config *.centralSwitch.eth[0].bitrate 100Mbps
config *.centralSwitch.eth[1].bitrate 1Gbps
config *.centralSwitch.eth[2].bitrate 100Mbps
config *.centralSwitch.eth[3].bitrate 100Mbps
config *.centralSwitch.eth[4].bitrate 100Mbps
config *.centralSwitch.eth[5].bitrate 100Mbps
config *.mainECU.eth[*].bitrate 1Gbps
config *.criticalSensor.eth[*].bitrate 100Mbps
config *.display.eth[*].bitrate 100Mbps
config *.attackerExternal.eth[*].bitrate 100Mbps
config *.compromisedNode.eth[*].bitrate 100Mbps
config *.configurator.config "xml(\"<config><interface hosts='**' address='10.0.0.x' netmask='255.255.255.0'/></config>\")"
config *.centralSwitch.typename TsnSwitch
config *.mainECU.typename TsnDevice
config *.criticalSensor.typename TsnDevice
config *.display.typename TsnDevice
config *.attackerExternal.typename TsnDevice
config *.compromisedNode.typename TsnDevice
config *.masterClock.typename TsnClock
config *.mainECU.hasUdp true
config *.criticalSensor.hasUdp true
config *.display.hasUdp true
config *.attackerExternal.hasUdp true
config *.compromisedNode.hasUdp true
config *.mainECU.hasIpv4 true
config *.criticalSensor.hasIpv4 true
config *.display.hasIpv4 true
config *.attackerExternal.hasIpv4 true
config *.compromisedNode.hasIpv4 true
config *.*.hasTimeSynchronization true
config *.*.clock.oscillator.driftRate "uniform(-20ppm, 20ppm)"
config **.gptp.syncInterval 10ms
config **.gptp.syncInitialOffset 1ms
config **.gptp.pdelayInterval 50ms
config **.gptp.pdelayInitialOffset 1ms
config *.masterClock.gptp.masterPorts "[\"eth0\"]"
config *.centralSwitch.gptp.slavePort "\"eth0\""
config *.centralSwitch.gptp.masterPorts "[\"eth1\",\"eth2\",\"eth3\",\"eth4\",\"eth5\"]"
config *.*.hasOutgoingStreams true
config *.centralSwitch.hasEgressTrafficShaping true
config *.centralSwitch.hasIncomingStreams true
config *.criticalSensor.bridging.streamIdentifier.typename StreamIdentifierLayer
config *.criticalSensor.bridging.streamCoder.typename StreamCoderLayer
config *.centralSwitch.bridging.streamCoder.encoder.mapping "[{stream: \"critical_control\", pcp: 7, vlan: 10}, {stream: \"status_updates\", pcp: 5, vlan: 30}, {stream: \"display_data\", pcp: 3, vlan: 20}, {stream: \"external_attack\", pcp: 0, vlan: 40}, {stream: \"compromised_attack\", pcp: 0, vlan: 41}]"
config *.centralSwitch.bridging.streamCoder.decoder.mapping "[{stream: \"critical_control\", pcp: 7, destination: \"mainECU\"}, {stream: \"status_updates\", pcp: 5, destination: \"mainECU\"}, {stream: \"display_data\", pcp: 3, destination: \"mainECU\"}, {stream: \"external_attack\", pcp: 0, source: \"attackerExternal\", destination: \"mainECU\"}, {stream: \"compromised_attack\", pcp: 0, source: \"compromisedNode\", destination: \"mainECU\"}]"
config "*.centralSwitch.bridging.streamCoder.decoder.mapping +" "[{pcp: 4, stream: \"sensor_monitoring\"}]"
config "*.centralSwitch.bridging.streamCoder.decoder.mapping +" "[{pcp: 4, destination: \"display\", stream: \"sensor_monitoring\"}]"
config "*.centralSwitch.bridging.streamCoder.decoder.mapping +" "[{stream: \"sensor_monitoring\", packetFilter: expr(has(udp) && udp.destPort == 7000)}]"
config "*.centralSwitch.bridging.streamCoder.encoder.mapping +" "[{stream: \"sensor_monitoring\", pcp: 4, vlan: 25}]"
config "*.centralSwitch.bridging.streamCoder.decoder.mapping +" "[{destination: \"01:80:C2:00:00:0E\", stream: \"gptp\"}]"
config "*.centralSwitch.bridging.streamCoder.decoder.mapping +" "[{packetFilter: expr(ethernetMacHeader.typeOrLength == 0x88f7), stream: \"gptp\"}]"
config "*.centralSwitch.bridging.streamCoder.decoder.mapping +" "[{pcp: 0, stream: \"default_stream\"}]"
config "*.centralSwitch.bridging.streamIdentifier.identifier.mapping +" "[{stream: \"gptp\", packetFilter: expr(has(etherTypeInd) && etherTypeInd.etherType == 0x88f7)}]"
config "*.centralSwitch.bridging.streamIdentifier.identifier.mapping +" "[{stream: \"gptp\", packetFilter: expr(ethernetMacHeader.typeOrLength == 0x88f7)}]"
config "*.centralSwitch.bridging.streamIdentifier.identifier.mapping +" "[{stream: \"gptp\", packetFilter: expr(etherType == 0x88f7)}]"
config "*.centralSwitch.bridging.streamIdentifier.identifier.mapping +" "[{stream: \"gptp\", packetFilter: expr(destAddress == \"01:80:C2:00:00:0E\")}]"
config *.centralSwitch.bridging.streamFilter.ingress.numStreams 8
config *.centralSwitch.bridging.streamFilter.ingress.classifier.mapping "{\"critical_control\": 0, \"status_updates\": 1, \"external_attack\": 2, \"compromised_attack\": 3, \"display_data\": 4, \"gptp\": 5, \"default_stream\": 6, \"sensor_monitoring\": 7}"
config *.centralSwitch.bridging.streamFilter.ingress.hasDefaultPath false
config *.centralSwitch.bridging.streamFilter.ingress.classifier.mode "\"both\""
config *.centralSwitch.bridging.streamFilter.ingress.classifier.defaultGateIndex 5
config *.centralSwitch.bridging.streamFilter.ingress.meter[*].typename DualRateThreeColorMeter
config *.centralSwitch.bridging.streamFilter.ingress.meter[0].display-name critical_control
config *.centralSwitch.bridging.streamFilter.ingress.meter[1].display-name status_updates
config *.centralSwitch.bridging.streamFilter.ingress.meter[2].display-name external_attack
config *.centralSwitch.bridging.streamFilter.ingress.meter[3].display-name compromised_attack
config *.centralSwitch.bridging.streamFilter.ingress.meter[4].display-name display_data
config *.centralSwitch.bridging.streamFilter.ingress.meter[0].committedInformationRate 10Mbps
config *.centralSwitch.bridging.streamFilter.ingress.meter[0].committedBurstSize 5kB
config *.centralSwitch.bridging.streamFilter.ingress.meter[0].excessInformationRate 5Mbps
config *.centralSwitch.bridging.streamFilter.ingress.meter[0].excessBurstSize 3kB
config *.centralSwitch.bridging.streamFilter.ingress.meter[1].committedInformationRate 5Mbps
config *.centralSwitch.bridging.streamFilter.ingress.meter[1].committedBurstSize 3kB
config *.centralSwitch.bridging.streamFilter.ingress.meter[1].excessInformationRate 2Mbps
config *.centralSwitch.bridging.streamFilter.ingress.meter[1].excessBurstSize 1kB
config *.centralSwitch.bridging.streamFilter.ingress.meter[2].committedInformationRate 50kbps
config *.centralSwitch.bridging.streamFilter.ingress.meter[2].committedBurstSize 256B
config *.centralSwitch.bridging.streamFilter.ingress.meter[2].excessInformationRate 25kbps
config *.centralSwitch.bridging.streamFilter.ingress.meter[2].excessBurstSize 128B
config *.centralSwitch.bridging.streamFilter.ingress.meter[3].committedInformationRate 50kbps
config *.centralSwitch.bridging.streamFilter.ingress.meter[3].committedBurstSize 256B
config *.centralSwitch.bridging.streamFilter.ingress.meter[3].excessInformationRate 25kbps
config *.centralSwitch.bridging.streamFilter.ingress.meter[3].excessBurstSize 128B
config *.centralSwitch.bridging.streamFilter.ingress.meter[4].committedInformationRate 2Mbps
config *.centralSwitch.bridging.streamFilter.ingress.meter[4].committedBurstSize 2kB
config *.centralSwitch.bridging.streamFilter.ingress.meter[4].excessInformationRate 1Mbps
config *.centralSwitch.bridging.streamFilter.ingress.meter[4].excessBurstSize 1kB
config *.centralSwitch.bridging.streamFilter.ingress.meter[5].display-name gptp
config *.centralSwitch.bridging.streamFilter.ingress.meter[5].committedInformationRate 1Mbps
config *.centralSwitch.bridging.streamFilter.ingress.meter[5].committedBurstSize 1kB
config *.centralSwitch.bridging.streamFilter.ingress.meter[5].excessInformationRate 1Mbps
config *.centralSwitch.bridging.streamFilter.ingress.meter[5].excessBurstSize 1kB
config *.centralSwitch.bridging.streamFilter.ingress.meter[6].display-name default_stream
config *.centralSwitch.bridging.streamFilter.ingress.meter[6].committedInformationRate 1bps
config *.centralSwitch.bridging.streamFilter.ingress.meter[6].committedBurstSize 1B
config *.centralSwitch.bridging.streamFilter.ingress.meter[6].excessInformationRate 1bps
config *.centralSwitch.bridging.streamFilter.ingress.meter[6].excessBurstSize 1B
config *.centralSwitch.bridging.streamFilter.ingress.meter[7].display-name sensor_monitoring
config *.centralSwitch.bridging.streamFilter.ingress.meter[7].committedInformationRate 3Mbps
config *.centralSwitch.bridging.streamFilter.ingress.meter[7].committedBurstSize 2kB
config *.centralSwitch.bridging.streamFilter.ingress.meter[7].excessInformationRate 1Mbps
config *.centralSwitch.bridging.streamFilter.ingress.meter[7].excessBurstSize 1kB
config *.centralSwitch.bridging.streamFilter.ingress.filter[5].labelFilter "\"green or yellow\""
config *.criticalSensor.bridging.streamIdentifier.identifier.mapping "[{stream: \"critical_control\", packetFilter: expr(has(udp) && udp.destPort == 5000)}]"
config *.criticalSensor.bridging.streamCoder.encoder.mapping "[{stream: \"critical_control\", pcp: 7, vlan: 10}]"
config *.mainECU.bridging.streamIdentifier.identifier.mapping "[{stream: \"status_updates\", packetFilter: expr(has(udp) && udp.destPort == 6000)}]"
config *.mainECU.bridging.streamCoder.encoder.mapping "[{stream: \"status_updates\", pcp: 5, vlan: 30}]"
config "*.criticalSensor.bridging.streamIdentifier.identifier.mapping +" "[{stream: \"sensor_monitoring\", packetFilter: expr(has(udp) && udp.destPort == 7000)}]"
config "*.criticalSensor.bridging.streamCoder.encoder.mapping +" "[{stream: \"sensor_monitoring\", pcp: 4, vlan: 25}]"
config *.display.bridging.streamIdentifier.identifier.mapping "[{stream: \"display_data\", packetFilter: expr(has(udp) && udp.destPort == 6003)}]"
config *.display.bridging.streamCoder.encoder.mapping "[{stream: \"display_data\", pcp: 3, vlan: 20}]"
config *.attackerExternal.bridging.streamIdentifier.identifier.mapping "[{stream: \"external_attack\", packetFilter: expr(has(udp) && udp.destPort == 5000)}]"
config *.attackerExternal.bridging.streamCoder.encoder.mapping "[{stream: \"external_attack\", pcp: 0, vlan: 40}]"
config *.compromisedNode.bridging.streamIdentifier.identifier.mapping "[{stream: \"compromised_attack\", packetFilter: expr(has(udp) && (udp.destPort == 8888 || udp.destPort == 5000))}]"
config *.compromisedNode.bridging.streamCoder.encoder.mapping "[{stream: \"compromised_attack\", pcp: 0, vlan: 41}]"
config *.criticalSensor.hasOutgoingStreams true
config *.display.hasOutgoingStreams true
config *.attackerExternal.hasOutgoingStreams true
config *.compromisedNode.hasOutgoingStreams true
config *.mainECU.hasOutgoingStreams true
config *.masterClock.hasOutgoingStreams true
config *.masterClock.bridging.streamIdentifier.identifier.mapping "[{stream: \"gptp\", packetFilter: expr(etherType == 0x88f7)}]"
config *.masterClock.bridging.streamCoder.encoder.mapping "[{stream: \"gptp\", pcp: 6, vlan: 0}]"
config "*.criticalSensor.bridging.streamIdentifier.identifier.mapping +" "[{stream: \"default_stream\", packetFilter: expr(true)}]"
config "*.criticalSensor.bridging.streamCoder.encoder.mapping        +" "[{stream: \"default_stream\",  pcp: 0, vlan: 0}]"
config "*.display.bridging.streamIdentifier.identifier.mapping       +" "[{stream: \"default_stream\", packetFilter: expr(true)}]"
config "*.display.bridging.streamCoder.encoder.mapping               +" "[{stream: \"default_stream\",  pcp: 0, vlan: 0}]"
config "*.attackerExternal.bridging.streamIdentifier.identifier.mapping +" "[{stream: \"default_stream\", packetFilter: expr(true)}]"
config "*.attackerExternal.bridging.streamCoder.encoder.mapping         +" "[{stream: \"default_stream\",  pcp: 0, vlan: 0}]"
config "*.compromisedNode.bridging.streamIdentifier.identifier.mapping  +" "[{stream: \"default_stream\", packetFilter: expr(true)}]"
config "*.compromisedNode.bridging.streamCoder.encoder.mapping          +" "[{stream: \"default_stream\",  pcp: 0, vlan: 0}]"
config "*.mainECU.bridging.streamIdentifier.identifier.mapping          +" "[{stream: \"default_stream\", packetFilter: expr(true)}]"
config "*.mainECU.bridging.streamCoder.encoder.mapping                  +" "[{stream: \"default_stream\",  pcp: 0, vlan: 0}]"
config *.centralSwitch.eth[*].macLayer.queue.numTrafficClasses 8
config *.centralSwitch.eth[*].macLayer.queue.classifier.typename PcpClassifier
config *.centralSwitch.eth[*].macLayer.queue.classifier.pcpToGateIndex "[0, 1, 2, 3, 4, 5, 6, 7]"
config *.centralSwitch.eth[*].macLayer.queue.transmissionGate[*].typename PeriodicGate
config *.centralSwitch.eth[*].macLayer.queue.transmissionGate[7].durations "[250us, 250us]"
config *.centralSwitch.eth[*].macLayer.queue.transmissionGate[6].durations "[200us, 300us]"
config *.centralSwitch.eth[*].macLayer.queue.transmissionGate[5].durations "[150us, 350us]"
config *.centralSwitch.eth[*].macLayer.queue.transmissionGate[4].durations "[100us, 400us]"
config *.centralSwitch.eth[*].macLayer.queue.transmissionGate[3].durations "[100us, 400us]"
config *.centralSwitch.eth[*].macLayer.queue.transmissionGate[2].durations "[50us, 450us]"
config *.centralSwitch.eth[*].macLayer.queue.transmissionGate[1].durations "[50us, 450us]"
config *.centralSwitch.eth[*].macLayer.queue.transmissionGate[0].durations "[25us, 475us]"
config *.centralSwitch.hasStreamRedundancy false
config *.centralSwitch.hasIngressTrafficFiltering true
config *.centralSwitch.bridging.streamIdentifier.typename StreamIdentifierLayer
config *.centralSwitch.bridging.streamIdentifier.identifier.typename StreamIdentifier
config *.centralSwitch.hasEgressTrafficShaping true
config *.centralSwitch.hasStreamFiltering true
config *.centralSwitch.hasStreamPolicing true
config *.centralSwitch.bridging.streamFilter.ingress.meter[*].colorAware false
config **.app[*].endToEndDelay:vector.result-recording-modes all
config **.app[*].endToEndDelay:vector.vector-recording true
config **.app[*].endToEndDelay:histogram.result-recording-modes all
config **.bitrate:vector.result-recording-modes all
config **.bitrate:vector.vector-recording true
config **.throughput:vector.result-recording-modes all
config **.throughput:vector.vector-recording true
config **.datarate:vector.result-recording-modes all
config **.datarate:vector.vector-recording true
config **.queue.queueLength:vector.result-recording-modes all
config **.queue.queueLength:vector.vector-recording true
config **.queue.queueingTime:vector.result-recording-modes all
config **.queue.queueingTime:vector.vector-recording true
config **.queue.queueBitLength:vector.result-recording-modes all
config **.queue.queueBitLength:vector.vector-recording true
config **.packetDropped:count.result-recording-modes all
config **.packetDropped:vector.result-recording-modes all
config **.packetDropped:vector.vector-recording true
config **.packetSent:count.result-recording-modes all
config **.packetReceived:count.result-recording-modes all
config **.rxPkOk:count.result-recording-modes all
config **.rxPkOk:vector.result-recording-modes all
config **.txPk:count.result-recording-modes all
config **.txPk:vector.result-recording-modes all
config **.bridging.streamFilter.ingress.meter[*].committedConformingPackets:count.result-recording-modes all
config **.bridging.streamFilter.ingress.meter[*].committedConformingPackets:vector.result-recording-modes all
config **.bridging.streamFilter.ingress.meter[*].committedConformingPackets:vector.vector-recording true
config **.bridging.streamFilter.ingress.meter[*].committedNonConformingPackets:count.result-recording-modes all
config **.bridging.streamFilter.ingress.meter[*].committedNonConformingPackets:vector.result-recording-modes all
config **.bridging.streamFilter.ingress.meter[*].committedNonConformingPackets:vector.vector-recording true
config **.bridging.streamFilter.ingress.meter[*].excessConformingPackets:count.result-recording-modes all
config **.bridging.streamFilter.ingress.meter[*].excessConformingPackets:vector.result-recording-modes all
config **.bridging.streamFilter.ingress.meter[*].excessConformingPackets:vector.vector-recording true
config **.bridging.streamFilter.ingress.meter[*].packetFiltered:count.result-recording-modes all
config **.bridging.streamFilter.ingress.meter[*].packetFiltered:vector.result-recording-modes all
config **.bridging.streamFilter.ingress.meter[*].packetFiltered:vector.vector-recording true
config **.bridging.streamCoder.packetEncoded:count.result-recording-modes all
config **.bridging.streamCoder.packetDecoded:count.result-recording-modes all
config **.bridging.streamIdentifier.packetClassified:count.result-recording-modes all
config **.bridging.streamIdentifier.packetClassified:vector.result-recording-modes all
config **.bridging.streamIdentifier.packetClassified:vector.vector-recording true
config **.queue.transmissionGate[*].gateStateChanged:vector.result-recording-modes all
config **.queue.transmissionGate[*].gateStateChanged:vector.vector-recording true
config **.queue.transmissionSelectionAlgorithm[*].credit:vector.result-recording-modes all
config **.queue.transmissionSelectionAlgorithm[*].credit:vector.vector-recording true
config **.gptp.clockServo.offsetNanoseconds:vector.result-recording-modes all
config **.gptp.clockServo.offsetNanoseconds:vector.vector-recording true
config **.gptp.clockServo.driftPpm:vector.result-recording-modes all
config **.gptp.clockServo.driftPpm:vector.vector-recording true
config **.gptp.clockServo.rateRatio:vector.result-recording-modes all
config **.gptp.clockServo.rateRatio:vector.vector-recording true
config **.mac.txPk:count.result-recording-modes all
config **.mac.rxPkOk:count.result-recording-modes all
config **.mac.frameSequenceErrors:count.result-recording-modes all
config **.mac.alignmentErrors:count.result-recording-modes all
config **.phy.txPk:count.result-recording-modes all
config **.phy.rxPkOk:count.result-recording-modes all
config **.phy.symbolErrors:count.result-recording-modes all
config **.ipv4.routingTable.routeAdded:count.result-recording-modes all
config **.ipv4.routingTable.routeDeleted:count.result-recording-modes all
config **.udp.packetSent:count.result-recording-modes all
config **.udp.packetReceived:count.result-recording-modes all
config **.udp.passedUpPk:count.result-recording-modes all
config **.pcp0:count.result-recording-modes all
config **.pcp1:count.result-recording-modes all
config **.pcp2:count.result-recording-modes all
config **.pcp3:count.result-recording-modes all
config **.pcp4:count.result-recording-modes all
config **.pcp5:count.result-recording-modes all
config **.pcp6:count.result-recording-modes all
config **.pcp7:count.result-recording-modes all
config *.attackerExternal.numApps 0
config *.compromisedNode.numApps 0
config *.visualizer.typename IntegratedCanvasVisualizer
config *.visualizer.dataLinkVisualizer.displayLinks true
config *.visualizer.dataLinkVisualizer.activityLevel "\"protocol\""
config *.visualizer.dataLinkVisualizer.fadeOutMode "\"simulationTime\""
config *.visualizer.dataLinkVisualizer.fadeOutTime 0.2s
config *.visualizer.statisticVisualizer.displayStatistics true
config *.visualizer.statisticVisualizer.signalName "\"packetReceived\""
config *.visualizer.statisticVisualizer.sourceFilter "\"**.app[*]\""
config *.visualizer.statisticVisualizer.format "\"count\""
config *.dataCollector.outputFile "\"results_flat/tsn_signals_Baseline-#2.csv\""
config *.dataCollector.windowLength 1ms
config *.dataCollector.emitCSV true
config *.dataCollector.emitPCPBreakdowns false
config *.dataCollector.emitRaw false
config *.dataCollector.emitNDJSON false
config *.dataCollector.emitPerStreamRows true
config *.dataCollector.includeControlFramesInThroughput true
config *.dataCollector.emitZeroIfNoSamples false
config *.mainECU.numApps 4
config *.mainECU.app[3].typename UdpBasicApp
config *.mainECU.app[3].localPort 6100
config *.mainECU.app[3].destAddresses "\"display\""
config *.mainECU.app[3].destPort 6000
config *.mainECU.app[3].messageLength 256B
config *.mainECU.app[3].sendInterval 2ms
config *.mainECU.app[3].startTime 10ms
config *.mainECU.app[3].stopTime 0.5s
config *.mlInferenceEngine.modelPath "\"../ml_models/tsn_extended_fdeep.json\""
config *.mlInferenceEngine.normPath "\"../ml_models/tsn_extended_norm.json\""
config *.mlInferenceEngine.inferenceInterval 1ms
config *.mlInferenceEngine.anomalyThreshold 0.7
config result-dir results_flat
config output-scalar-file results_flat/Baseline-2.sca
config output-vector-file results_flat/Baseline-2.vec
config **.result-recording-modes default
config **.vector-recording false
config **.scalar-recording false

vector 0 MinimalAttackNetwork.masterClock.clock.oscillator driftRateChanged:vector ETV
attr interpolationmode sample-hold
attr recordingmode vector
attr title "Oscillator drift rate"
attr unit ppm
vector 1 MinimalAttackNetwork.masterClock.clock timeChanged:vector ETV
attr interpolationmode linear
attr recordingmode vector
attr title "Clock time"
vector 2 MinimalAttackNetwork.masterClock.ethernet.macHeaderInserter incomingPacketLengths:vector ETV
attr interpolationmode none
attr recordingmode vector
attr source "packetLength(merge(packetPushedIn, packetPulledIn))"
attr title "incoming packet lengths"
attr unit b
vector 3 MinimalAttackNetwork.masterClock.ethernet.macHeaderInserter incomingDataRate:vector ETV
attr interpolationmode linear
attr recordingmode vector
attr source "throughput(merge(packetPushedIn, packetPulledIn))"
attr title "incoming data rate"
attr unit bps
vector 4 MinimalAttackNetwork.masterClock.ethernet.macHeaderInserter outgoingPacketLengths:vector ETV
attr interpolationmode none
attr recordingmode vector
attr source "packetLength(merge(packetPushedOut, packetPulledOut))"
attr title "outgoing packet lengths"
attr unit b
vector 5 MinimalAttackNetwork.masterClock.ethernet.macHeaderInserter outgoingDataRate:vector ETV
attr interpolationmode linear
attr recordingmode vector
attr source "throughput(merge(packetPushedOut, packetPulledOut))"
attr title "outgoing data rate"
attr unit bps
vector 6 MinimalAttackNetwork.masterClock.ethernet.macHeaderInserter flowIncomingPacketLengths:vector ETV
attr interpolationmode none
attr recordingmode vector
attr source "packetLength(demuxFlow(merge(packetPushedIn, packetPulledIn)))"
attr title "flow specific incoming packet lengths"
attr unit b
vector 7 MinimalAttackNetwork.masterClock.ethernet.macHeaderInserter flowIncomingDataRate:vector ETV
attr interpolationmode linear
attr recordingmode vector
attr source "throughput(demuxFlow(merge(packetPushedIn, packetPulledIn)))"
attr title "flow specific incoming data rate"
attr unit bps
vector 8 MinimalAttackNetwork.masterClock.ethernet.macHeaderInserter flowOutgoingPacketLengths:vector ETV
attr interpolationmode none
attr recordingmode vector
attr source "packetLength(demuxFlow(merge(packetPushedOut, packetPulledOut)))"
attr title "flow specific outgoing packet lengths"
attr unit b
vector 9 MinimalAttackNetwork.masterClock.ethernet.macHeaderInserter flowOutgoingDataRate:vector ETV
attr interpolationmode linear
attr recordingmode vector
attr source "throughput(demuxFlow(merge(packetPushedOut, packetPulledOut)))"
attr title "flow specific outgoing data rate"
attr unit bps
vector 10 MinimalAttackNetwork.masterClock.ethernet.paddingInserter incomingPacketLengths:vector ETV
attr interpolationmode none
attr recordingmode vector
attr source "packetLength(merge(packetPushedIn, packetPulledIn))"
attr title "incoming packet lengths"
attr unit b
vector 11 MinimalAttackNetwork.masterClock.ethernet.paddingInserter incomingDataRate:vector ETV
attr interpolationmode linear
attr recordingmode vector
attr source "throughput(merge(packetPushedIn, packetPulledIn))"
attr title "incoming data rate"
attr unit bps
vector 12 MinimalAttackNetwork.masterClock.ethernet.paddingInserter outgoingPacketLengths:vector ETV
attr interpolationmode none
attr recordingmode vector
attr source "packetLength(merge(packetPushedOut, packetPulledOut))"
attr title "outgoing packet lengths"
attr unit b
vector 13 MinimalAttackNetwork.masterClock.ethernet.paddingInserter outgoingDataRate:vector ETV
attr interpolationmode linear
attr recordingmode vector
attr source "throughput(merge(packetPushedOut, packetPulledOut))"
attr title "outgoing data rate"
attr unit bps
vector 14 MinimalAttackNetwork.masterClock.ethernet.paddingInserter flowIncomingPacketLengths:vector ETV
attr interpolationmode none
attr recordingmode vector
attr source "packetLength(demuxFlow(merge(packetPushedIn, packetPulledIn)))"
attr title "flow specific incoming packet lengths"
attr unit b
vector 15 MinimalAttackNetwork.masterClock.ethernet.paddingInserter flowIncomingDataRate:vector ETV
attr interpolationmode linear
attr recordingmode vector
attr source "throughput(demuxFlow(merge(packetPushedIn, packetPulledIn)))"
attr title "flow specific incoming data rate"
attr unit bps
vector 16 MinimalAttackNetwork.masterClock.ethernet.paddingInserter flowOutgoingPacketLengths:vector ETV
attr interpolationmode none
attr recordingmode vector
attr source "packetLength(demuxFlow(merge(packetPushedOut, packetPulledOut)))"
attr title "flow specific outgoing packet lengths"
attr unit b
vector 17 MinimalAttackNetwork.masterClock.ethernet.paddingInserter flowOutgoingDataRate:vector ETV
attr interpolationmode linear
attr recordingmode vector
attr source "throughput(demuxFlow(merge(packetPushedOut, packetPulledOut)))"
attr title "flow specific outgoing data rate"
attr unit bps
vector 18 MinimalAttackNetwork.masterClock.ethernet.fcsInserter incomingPacketLengths:vector ETV
attr interpolationmode none
attr recordingmode vector
attr source "packetLength(merge(packetPushedIn, packetPulledIn))"
attr title "incoming packet lengths"
attr unit b
vector 19 MinimalAttackNetwork.masterClock.ethernet.fcsInserter incomingDataRate:vector ETV
attr interpolationmode linear
attr recordingmode vector
attr source "throughput(merge(packetPushedIn, packetPulledIn))"
attr title "incoming data rate"
attr unit bps
vector 20 MinimalAttackNetwork.masterClock.ethernet.fcsInserter outgoingPacketLengths:vector ETV
attr interpolationmode none
attr recordingmode vector
attr source "packetLength(merge(packetPushedOut, packetPulledOut))"
attr title "outgoing packet lengths"
attr unit b
vector 21 MinimalAttackNetwork.masterClock.ethernet.fcsInserter outgoingDataRate:vector ETV
attr interpolationmode linear
attr recordingmode vector
attr source "throughput(merge(packetPushedOut, packetPulledOut))"
attr title "outgoing data rate"
attr unit bps
vector 22 MinimalAttackNetwork.masterClock.ethernet.fcsInserter flowIncomingPacketLengths:vector ETV
attr interpolationmode none
attr recordingmode vector
attr source "packetLength(demuxFlow(merge(packetPushedIn, packetPulledIn)))"
attr title "flow specific incoming packet lengths"
attr unit b
vector 23 MinimalAttackNetwork.masterClock.ethernet.fcsInserter flowIncomingDataRate:vector ETV
attr interpolationmode linear
attr recordingmode vector
attr source "throughput(demuxFlow(merge(packetPushedIn, packetPulledIn)))"
attr title "flow specific incoming data rate"
attr unit bps
vector 24 MinimalAttackNetwork.masterClock.ethernet.fcsInserter flowOutgoingPacketLengths:vector ETV
attr interpolationmode none
attr recordingmode vector
attr source "packetLength(demuxFlow(merge(packetPushedOut, packetPulledOut)))"
attr title "flow specific outgoing packet lengths"
attr unit b
vector 25 MinimalAttackNetwork.masterClock.ethernet.fcsInserter flowOutgoingDataRate:vector ETV
attr interpolationmode linear
attr recordingmode vector
attr source "throughput(demuxFlow(merge(packetPushedOut, packetPulledOut)))"
attr title "flow specific outgoing data rate"
attr unit bps
vector 26 MinimalAttackNetwork.masterClock.ethernet.macHeaderChecker incomingPacketLengths:vector ETV
attr interpolationmode none
attr recordingmode vector
attr source "packetLength(merge(packetPushedIn, packetPulledIn))"
attr title "incoming packet lengths"
attr unit b
vector 27 MinimalAttackNetwork.masterClock.ethernet.macHeaderChecker incomingDataRate:vector ETV
attr interpolationmode linear
attr recordingmode vector
attr source "throughput(merge(packetPushedIn, packetPulledIn))"
attr title "incoming data rate"
attr unit bps
vector 28 MinimalAttackNetwork.masterClock.ethernet.macHeaderChecker outgoingPacketLengths:vector ETV
attr interpolationmode none
attr recordingmode vector
attr source "packetLength(merge(packetPushedOut, packetPulledOut))"
attr title "outgoing packet lengths"
attr unit b
vector 29 MinimalAttackNetwork.masterClock.ethernet.macHeaderChecker outgoingDataRate:vector ETV
attr interpolationmode linear
attr recordingmode vector
attr source "throughput(merge(packetPushedOut, packetPulledOut))"
attr title "outgoing data rate"
attr unit bps
vector 30 MinimalAttackNetwork.masterClock.ethernet.macHeaderChecker droppedPacketLengths:vector ETV
attr interpolationmode none
attr recordingmode vector
attr source packetLength(packetDropped)
attr title "dropped packet lengths"
attr unit b
vector 31 MinimalAttackNetwork.masterClock.ethernet.macHeaderChecker droppedDataRate:vector ETV
attr interpolationmode linear
attr recordingmode vector
attr source throughput(packetDropped)
attr title "dropped data rate"
attr unit bps
vector 32 MinimalAttackNetwork.masterClock.ethernet.macHeaderChecker flowIncomingPacketLengths:vector ETV
attr interpolationmode none
attr recordingmode vector
attr source "packetLength(demuxFlow(merge(packetPushedIn, packetPulledIn)))"
attr title "flow specific incoming packet lengths"
attr unit b
vector 33 MinimalAttackNetwork.masterClock.ethernet.macHeaderChecker flowIncomingDataRate:vector ETV
attr interpolationmode linear
attr recordingmode vector
attr source "throughput(demuxFlow(merge(packetPushedIn, packetPulledIn)))"
attr title "flow specific incoming data rate"
attr unit bps
vector 34 MinimalAttackNetwork.masterClock.ethernet.macHeaderChecker flowOutgoingPacketLengths:vector ETV
attr interpolationmode none
attr recordingmode vector
attr source "packetLength(demuxFlow(merge(packetPushedOut, packetPulledOut)))"
attr title "flow specific outgoing packet lengths"
attr unit b
vector 35 MinimalAttackNetwork.masterClock.ethernet.macHeaderChecker flowOutgoingDataRate:vector ETV
attr interpolationmode linear
attr recordingmode vector
attr source "throughput(demuxFlow(merge(packetPushedOut, packetPulledOut)))"
attr title "flow specific outgoing data rate"
attr unit bps
vector 36 MinimalAttackNetwork.masterClock.ethernet.macHeaderChecker flowDroppedPacketLengths:vector ETV
attr interpolationmode none
attr recordingmode vector
attr source packetLength(demuxFlow(packetDropped))
attr title "flow specific dropped packet lengths"
attr unit b
vector 37 MinimalAttackNetwork.masterClock.ethernet.macHeaderChecker flowDroppedDataRate:vector ETV
attr interpolationmode linear
attr recordingmode vector
attr source throughput(demuxFlow(packetDropped))
attr title "flow specific dropped data rate"
attr unit bps
vector 38 MinimalAttackNetwork.masterClock.ethernet.fcsChecker incomingPacketLengths:vector ETV
attr interpolationmode none
attr recordingmode vector
attr source "packetLength(merge(packetPushedIn, packetPulledIn))"
attr title "incoming packet lengths"
attr unit b
vector 39 MinimalAttackNetwork.masterClock.ethernet.fcsChecker incomingDataRate:vector ETV
attr interpolationmode linear
attr recordingmode vector
attr source "throughput(merge(packetPushedIn, packetPulledIn))"
attr title "incoming data rate"
attr unit bps
vector 40 MinimalAttackNetwork.masterClock.ethernet.fcsChecker outgoingPacketLengths:vector ETV
attr interpolationmode none
attr recordingmode vector
attr source "packetLength(merge(packetPushedOut, packetPulledOut))"
attr title "outgoing packet lengths"
attr unit b
vector 41 MinimalAttackNetwork.masterClock.ethernet.fcsChecker outgoingDataRate:vector ETV
attr interpolationmode linear
attr recordingmode vector
attr source "throughput(merge(packetPushedOut, packetPulledOut))"
attr title "outgoing data rate"
attr unit bps
vector 42 MinimalAttackNetwork.masterClock.ethernet.fcsChecker droppedPacketLengths:vector ETV
attr interpolationmode none
attr recordingmode vector
attr source packetLength(packetDropped)
attr title "dropped packet lengths"
attr unit b
vector 43 MinimalAttackNetwork.masterClock.ethernet.fcsChecker droppedDataRate:vector ETV
attr interpolationmode linear
attr recordingmode vector
attr source throughput(packetDropped)
attr title "dropped data rate"
attr unit bps
vector 44 MinimalAttackNetwork.masterClock.ethernet.fcsChecker flowIncomingPacketLengths:vector ETV
attr interpolationmode none
attr recordingmode vector
attr source "packetLength(demuxFlow(merge(packetPushedIn, packetPulledIn)))"
attr title "flow specific incoming packet lengths"
attr unit b
vector 45 MinimalAttackNetwork.masterClock.ethernet.fcsChecker flowIncomingDataRate:vector ETV
attr interpolationmode linear
attr recordingmode vector
attr source "throughput(demuxFlow(merge(packetPushedIn, packetPulledIn)))"
attr title "flow specific incoming data rate"
attr unit bps
vector 46 MinimalAttackNetwork.masterClock.ethernet.fcsChecker flowOutgoingPacketLengths:vector ETV
attr interpolationmode none
attr recordingmode vector
attr source "packetLength(demuxFlow(merge(packetPushedOut, packetPulledOut)))"
attr title "flow specific outgoing packet lengths"
attr unit b
vector 47 MinimalAttackNetwork.masterClock.ethernet.fcsChecker flowOutgoingDataRate:vector ETV
attr interpolationmode linear
attr recordingmode vector
attr source "throughput(demuxFlow(merge(packetPushedOut, packetPulledOut)))"
attr title "flow specific outgoing data rate"
attr unit bps
vector 48 MinimalAttackNetwork.masterClock.ethernet.fcsChecker flowDroppedPacketLengths:vector ETV
attr interpolationmode none
attr recordingmode vector
attr source packetLength(demuxFlow(packetDropped))
attr title "flow specific dropped packet lengths"
attr unit b
vector 49 MinimalAttackNetwork.masterClock.ethernet.fcsChecker flowDroppedDataRate:vector ETV
attr interpolationmode linear
attr recordingmode vector
attr source throughput(demuxFlow(packetDropped))
attr title "flow specific dropped data rate"
attr unit bps
vector 50 MinimalAttackNetwork.masterClock.lo[0].lo rcvdPkFromHl:vector(packetBytes) ETV
attr interpolationmode none
attr recordingmode vector(packetBytes)
attr source packetReceivedFromUpper
attr title "packets received from higher layer, packetBytes"
vector 51 MinimalAttackNetwork.masterClock.lo[0].lo passedUpPk:vector(packetBytes) ETV
attr interpolationmode none
attr recordingmode vector(packetBytes)
attr source packetSentToUpper
attr title "packets passed to higher layer, packetBytes"
vector 52 MinimalAttackNetwork.masterClock.lo[0] packetDropInterfaceDown:vector(packetBytes) ETV
attr interpolationmode none
attr recordingmode vector(packetBytes)
attr source packetDropReasonIsInterfaceDown(packetDropped)
attr title "packet drops: interface down, packetBytes"
vector 53 MinimalAttackNetwork.masterClock.lo[0] packetDropNoCarrier:vector(packetBytes) ETV
attr interpolationmode none
attr recordingmode vector(packetBytes)
attr source packetDropReasonIsNoCarrier(packetDropped)
attr title "packet drops: no carrier, packetBytes"
vector 54 MinimalAttackNetwork.masterClock.eth[0].macLayer.queue queueLength:vector ETV
attr autoWarmupFilter false
attr interpolationmode sample-hold
attr recordingmode vector
attr source "warmup(atomic(constant0(packetPushEnded) + count(packetPushStarted) - count(packetPulled) - count(packetRemoved) - count(packetDropped)))"
attr title "queue length"
attr unit pk
vector 55 MinimalAttackNetwork.masterClock.eth[0].macLayer.queue queueBitLength:vector ETV
attr autoWarmupFilter false
attr interpolationmode sample-hold
attr recordingmode vector
attr source "warmup(atomic(constant0(packetPushEnded) + sum(packetLength(packetPushStarted)) - sum(packetLength(packetPulled)) - sum(packetLength(packetRemoved)) - sum(packetLength(packetDropped))))"
attr title "queue bit length"
attr unit b
vector 56 MinimalAttackNetwork.masterClock.eth[0].macLayer.queue queueingTime:vector ETV
attr interpolationmode none
attr recordingmode vector
attr source queueingTime(packetPulled)
attr title "queueing times"
attr unit s
vector 57 MinimalAttackNetwork.masterClock.eth[0].macLayer.queue incomingPacketLengths:vector ETV
attr interpolationmode none
attr recordingmode vector
attr source packetLength(packetPushStarted)
attr title "incoming packet lengths"
attr unit b
vector 58 MinimalAttackNetwork.masterClock.eth[0].macLayer.queue incomingDataRate:vector ETV
attr interpolationmode linear
attr recordingmode vector
attr source throughput(packetPushStarted)
attr title "incoming datarate"
attr unit bps
vector 59 MinimalAttackNetwork.masterClock.eth[0].macLayer.queue outgoingPacketLengths:vector ETV
attr interpolationmode none
attr recordingmode vector
attr source packetLength(packetPulled)
attr title "outgoing packet lengths"
attr unit b
vector 60 MinimalAttackNetwork.masterClock.eth[0].macLayer.queue outgoingDataRate:vector ETV
attr interpolationmode linear
attr recordingmode vector
attr source throughput(packetPulled)
attr title "outgoing datarate"
attr unit bps
vector 61 MinimalAttackNetwork.masterClock.eth[0].macLayer.queue droppedPacketLengthsQueueOverflow:vector ETV
attr interpolationmode none
attr recordingmode vector
attr source packetLength(packetDropReasonIsQueueOverflow(packetDropped))
attr title "dropped packet lengths: queue overflow"
attr unit b
vector 62 MinimalAttackNetwork.masterClock.eth[0].macLayer.queue flowQueueingTime:vector ETV
attr interpolationmode none
attr recordingmode vector
attr source queueingTime(demuxFlow(packetPulled))
attr title "flow queueing times"
attr unit s
vector 63 MinimalAttackNetwork.masterClock.eth[0].macLayer.queue flowIncomingDataRate:vector ETV
attr interpolationmode linear
attr recordingmode vector
attr source throughput(flowPacketLength(demuxFlow(packetPushStarted)))
attr title "flow specific incoming data rate"
attr unit bps
vector 64 MinimalAttackNetwork.masterClock.eth[0].macLayer.queue flowOutgoingDataRate:vector ETV
attr interpolationmode linear
attr recordingmode vector
attr source throughput(flowPacketLength(demuxFlow(packetPulled)))
attr title "flow specific outgoing data rate"
attr unit bps
vector 65 MinimalAttackNetwork.masterClock.eth[0].macLayer.server incomingPacketLengths:vector ETV
attr interpolationmode none
attr recordingmode vector
attr source packetLength(packetPulled)
attr title "incoming packet lengths"
attr unit b
vector 66 MinimalAttackNetwork.masterClock.eth[0].macLayer.server incomingDataRate:vector ETV
attr interpolationmode linear
attr recordingmode vector
attr source throughput(packetPulled)
attr title "incoming datarate"
attr unit bps
vector 67 MinimalAttackNetwork.masterClock.eth[0].macLayer.server outgoingPacketLengths:vector ETV
attr interpolationmode none
attr recordingmode vector
attr source packetLength(packetPushed)
attr title "outgoing packet lengths"
attr unit b
vector 68 MinimalAttackNetwork.masterClock.eth[0].macLayer.server outgoingDataRate:vector ETV
attr interpolationmode linear
attr recordingmode vector
attr source throughput(packetPushed)
attr title "outgoing datarate"
attr unit bps
vector 69 MinimalAttackNetwork.masterClock.eth[0].macLayer.outboundEmitter incomingPacketLengths:vector ETV
attr interpolationmode none
attr recordingmode vector
attr source "packetLength(merge(packetPushedIn, packetPulledIn))"
attr title "incoming packet lengths"
attr unit b
vector 70 MinimalAttackNetwork.masterClock.eth[0].macLayer.outboundEmitter incomingDataRate:vector ETV
attr interpolationmode linear
attr recordingmode vector
attr source "throughput(merge(packetPushedIn, packetPulledIn))"
attr title "incoming data rate"
attr unit bps
vector 71 MinimalAttackNetwork.masterClock.eth[0].macLayer.outboundEmitter outgoingPacketLengths:vector ETV
attr interpolationmode none
attr recordingmode vector
attr source "packetLength(merge(packetPushedOut, packetPulledOut))"
attr title "outgoing packet lengths"
attr unit b
vector 72 MinimalAttackNetwork.masterClock.eth[0].macLayer.outboundEmitter outgoingDataRate:vector ETV
attr interpolationmode linear
attr recordingmode vector
attr source "throughput(merge(packetPushedOut, packetPulledOut))"
attr title "outgoing data rate"
attr unit bps
vector 73 MinimalAttackNetwork.masterClock.eth[0].macLayer.outboundEmitter flowIncomingPacketLengths:vector ETV
attr interpolationmode none
attr recordingmode vector
attr source "packetLength(demuxFlow(merge(packetPushedIn, packetPulledIn)))"
attr title "flow specific incoming packet lengths"
attr unit b
vector 74 MinimalAttackNetwork.masterClock.eth[0].macLayer.outboundEmitter flowIncomingDataRate:vector ETV
attr interpolationmode linear
attr recordingmode vector
attr source "throughput(demuxFlow(merge(packetPushedIn, packetPulledIn)))"
attr title "flow specific incoming data rate"
attr unit bps
vector 75 MinimalAttackNetwork.masterClock.eth[0].macLayer.outboundEmitter flowOutgoingPacketLengths:vector ETV
attr interpolationmode none
attr recordingmode vector
attr source "packetLength(demuxFlow(merge(packetPushedOut, packetPulledOut)))"
attr title "flow specific outgoing packet lengths"
attr unit b
vector 76 MinimalAttackNetwork.masterClock.eth[0].macLayer.outboundEmitter flowOutgoingDataRate:vector ETV
attr interpolationmode linear
attr recordingmode vector
attr source "throughput(demuxFlow(merge(packetPushedOut, packetPulledOut)))"
attr title "flow specific outgoing data rate"
attr unit bps
vector 77 MinimalAttackNetwork.masterClock.eth[0].macLayer.fcsChecker incomingPacketLengths:vector ETV
attr interpolationmode none
attr recordingmode vector
attr source "packetLength(merge(packetPushedIn, packetPulledIn))"
attr title "incoming packet lengths"
attr unit b
vector 78 MinimalAttackNetwork.masterClock.eth[0].macLayer.fcsChecker incomingDataRate:vector ETV
attr interpolationmode linear
attr recordingmode vector
attr source "throughput(merge(packetPushedIn, packetPulledIn))"
attr title "incoming data rate"
attr unit bps
vector 79 MinimalAttackNetwork.masterClock.eth[0].macLayer.fcsChecker outgoingPacketLengths:vector ETV
attr interpolationmode none
attr recordingmode vector
attr source "packetLength(merge(packetPushedOut, packetPulledOut))"
attr title "outgoing packet lengths"
attr unit b
vector 80 MinimalAttackNetwork.masterClock.eth[0].macLayer.fcsChecker outgoingDataRate:vector ETV
attr interpolationmode linear
attr recordingmode vector
attr source "throughput(merge(packetPushedOut, packetPulledOut))"
attr title "outgoing data rate"
attr unit bps
vector 81 MinimalAttackNetwork.masterClock.eth[0].macLayer.fcsChecker droppedPacketLengths:vector ETV
attr interpolationmode none
attr recordingmode vector
attr source packetLength(packetDropped)
attr title "dropped packet lengths"
attr unit b
vector 82 MinimalAttackNetwork.masterClock.eth[0].macLayer.fcsChecker droppedDataRate:vector ETV
attr interpolationmode linear
attr recordingmode vector
attr source throughput(packetDropped)
attr title "dropped data rate"
attr unit bps
vector 83 MinimalAttackNetwork.masterClock.eth[0].macLayer.fcsChecker flowIncomingPacketLengths:vector ETV
attr interpolationmode none
attr recordingmode vector
attr source "packetLength(demuxFlow(merge(packetPushedIn, packetPulledIn)))"
attr title "flow specific incoming packet lengths"
attr unit b
vector 84 MinimalAttackNetwork.masterClock.eth[0].macLayer.fcsChecker flowIncomingDataRate:vector ETV
attr interpolationmode linear
attr recordingmode vector
attr source "throughput(demuxFlow(merge(packetPushedIn, packetPulledIn)))"
attr title "flow specific incoming data rate"
attr unit bps
vector 85 MinimalAttackNetwork.masterClock.eth[0].macLayer.fcsChecker flowOutgoingPacketLengths:vector ETV
attr interpolationmode none
attr recordingmode vector
attr source "packetLength(demuxFlow(merge(packetPushedOut, packetPulledOut)))"
attr title "flow specific outgoing packet lengths"
attr unit b
vector 86 MinimalAttackNetwork.masterClock.eth[0].macLayer.fcsChecker flowOutgoingDataRate:vector ETV
attr interpolationmode linear
attr recordingmode vector
attr source "throughput(demuxFlow(merge(packetPushedOut, packetPulledOut)))"
attr title "flow specific outgoing data rate"
attr unit bps
vector 87 MinimalAttackNetwork.masterClock.eth[0].macLayer.fcsChecker flowDroppedPacketLengths:vector ETV
attr interpolationmode none
attr recordingmode vector
attr source packetLength(demuxFlow(packetDropped))
attr title "flow specific dropped packet lengths"
attr unit b
vector 88 MinimalAttackNetwork.masterClock.eth[0].macLayer.fcsChecker flowDroppedDataRate:vector ETV
attr interpolationmode linear
attr recordingmode vector
attr source throughput(demuxFlow(packetDropped))
attr title "flow specific dropped data rate"
attr unit bps
vector 89 MinimalAttackNetwork.masterClock.eth[0].macLayer.inboundEmitter incomingPacketLengths:vector ETV
attr interpolationmode none
attr recordingmode vector
attr source "packetLength(merge(packetPushedIn, packetPulledIn))"
attr title "incoming packet lengths"
attr unit b
vector 90 MinimalAttackNetwork.masterClock.eth[0].macLayer.inboundEmitter incomingDataRate:vector ETV
attr interpolationmode linear
attr recordingmode vector
attr source "throughput(merge(packetPushedIn, packetPulledIn))"
attr title "incoming data rate"
attr unit bps
vector 91 MinimalAttackNetwork.masterClock.eth[0].macLayer.inboundEmitter outgoingPacketLengths:vector ETV
attr interpolationmode none
attr recordingmode vector
attr source "packetLength(merge(packetPushedOut, packetPulledOut))"
attr title "outgoing packet lengths"
attr unit b
vector 92 MinimalAttackNetwork.masterClock.eth[0].macLayer.inboundEmitter outgoingDataRate:vector ETV
attr interpolationmode linear
attr recordingmode vector
attr source "throughput(merge(packetPushedOut, packetPulledOut))"
attr title "outgoing data rate"
attr unit bps
vector 93 MinimalAttackNetwork.masterClock.eth[0].macLayer.inboundEmitter flowIncomingPacketLengths:vector ETV
attr interpolationmode none
attr recordingmode vector
attr source "packetLength(demuxFlow(merge(packetPushedIn, packetPulledIn)))"
attr title "flow specific incoming packet lengths"
attr unit b
vector 94 MinimalAttackNetwork.masterClock.eth[0].macLayer.inboundEmitter flowIncomingDataRate:vector ETV
attr interpolationmode linear
attr recordingmode vector
attr source "throughput(demuxFlow(merge(packetPushedIn, packetPulledIn)))"
attr title "flow specific incoming data rate"
attr unit bps
vector 95 MinimalAttackNetwork.masterClock.eth[0].macLayer.inboundEmitter flowOutgoingPacketLengths:vector ETV
attr interpolationmode none
attr recordingmode vector
attr source "packetLength(demuxFlow(merge(packetPushedOut, packetPulledOut)))"
attr title "flow specific outgoing packet lengths"
attr unit b
vector 96 MinimalAttackNetwork.masterClock.eth[0].macLayer.inboundEmitter flowOutgoingDataRate:vector ETV
attr interpolationmode linear
attr recordingmode vector
attr source "throughput(demuxFlow(merge(packetPushedOut, packetPulledOut)))"
attr title "flow specific outgoing data rate"
attr unit bps
vector 97 MinimalAttackNetwork.masterClock.eth[0].phyLayer.phyHeaderInserter incomingPacketLengths:vector ETV
attr interpolationmode none
attr recordingmode vector
attr source "packetLength(merge(packetPushedIn, packetPulledIn))"
attr title "incoming packet lengths"
attr unit b
vector 98 MinimalAttackNetwork.masterClock.eth[0].phyLayer.phyHeaderInserter incomingDataRate:vector ETV
attr interpolationmode linear
attr recordingmode vector
attr source "throughput(merge(packetPushedIn, packetPulledIn))"
attr title "incoming data rate"
attr unit bps
vector 99 MinimalAttackNetwork.masterClock.eth[0].phyLayer.phyHeaderInserter outgoingPacketLengths:vector ETV
attr interpolationmode none
attr recordingmode vector
attr source "packetLength(merge(packetPushedOut, packetPulledOut))"
attr title "outgoing packet lengths"
attr unit b
vector 100 MinimalAttackNetwork.masterClock.eth[0].phyLayer.phyHeaderInserter outgoingDataRate:vector ETV
attr interpolationmode linear
attr recordingmode vector
attr source "throughput(merge(packetPushedOut, packetPulledOut))"
attr title "outgoing data rate"
attr unit bps
vector 101 MinimalAttackNetwork.masterClock.eth[0].phyLayer.phyHeaderInserter flowIncomingPacketLengths:vector ETV
attr interpolationmode none
attr recordingmode vector
attr source "packetLength(demuxFlow(merge(packetPushedIn, packetPulledIn)))"
attr title "flow specific incoming packet lengths"
attr unit b
vector 102 MinimalAttackNetwork.masterClock.eth[0].phyLayer.phyHeaderInserter flowIncomingDataRate:vector ETV
attr interpolationmode linear
attr recordingmode vector
attr source "throughput(demuxFlow(merge(packetPushedIn, packetPulledIn)))"
attr title "flow specific incoming data rate"
attr unit bps
vector 103 MinimalAttackNetwork.masterClock.eth[0].phyLayer.phyHeaderInserter flowOutgoingPacketLengths:vector ETV
attr interpolationmode none
attr recordingmode vector
attr source "packetLength(demuxFlow(merge(packetPushedOut, packetPulledOut)))"
attr title "flow specific outgoing packet lengths"
attr unit b
vector 104 MinimalAttackNetwork.masterClock.eth[0].phyLayer.phyHeaderInserter flowOutgoingDataRate:vector ETV
attr interpolationmode linear
attr recordingmode vector
attr source "throughput(demuxFlow(merge(packetPushedOut, packetPulledOut)))"
attr title "flow specific outgoing data rate"
attr unit bps
vector 105 MinimalAttackNetwork.masterClock.eth[0].phyLayer.interFrameGapInserter interpacketGap:vector ETV
attr interpolationmode sample-hold
attr recordingmode vector
attr source "count(interpacketGapStarted) - count(interpacketGapEnded)"
attr title "interpacket gap state"
attr type int
vector 106 MinimalAttackNetwork.masterClock.eth[0].phyLayer.outboundEmitter incomingPacketLengths:vector ETV
attr interpolationmode none
attr recordingmode vector
attr source "packetLength(merge(packetPushedIn, packetPulledIn))"
attr title "incoming packet lengths"
attr unit b
vector 107 MinimalAttackNetwork.masterClock.eth[0].phyLayer.outboundEmitter incomingDataRate:vector ETV
attr interpolationmode linear
attr recordingmode vector
attr source "throughput(merge(packetPushedIn, packetPulledIn))"
attr title "incoming data rate"
attr unit bps
vector 108 MinimalAttackNetwork.masterClock.eth[0].phyLayer.outboundEmitter outgoingPacketLengths:vector ETV
attr interpolationmode none
attr recordingmode vector
attr source "packetLength(merge(packetPushedOut, packetPulledOut))"
attr title "outgoing packet lengths"
attr unit b
vector 109 MinimalAttackNetwork.masterClock.eth[0].phyLayer.outboundEmitter outgoingDataRate:vector ETV
attr interpolationmode linear
attr recordingmode vector
attr source "throughput(merge(packetPushedOut, packetPulledOut))"
attr title "outgoing data rate"
attr unit bps
vector 110 MinimalAttackNetwork.masterClock.eth[0].phyLayer.outboundEmitter flowIncomingPacketLengths:vector ETV
attr interpolationmode none
attr recordingmode vector
attr source "packetLength(demuxFlow(merge(packetPushedIn, packetPulledIn)))"
attr title "flow specific incoming packet lengths"
attr unit b
vector 111 MinimalAttackNetwork.masterClock.eth[0].phyLayer.outboundEmitter flowIncomingDataRate:vector ETV
attr interpolationmode linear
attr recordingmode vector
attr source "throughput(demuxFlow(merge(packetPushedIn, packetPulledIn)))"
attr title "flow specific incoming data rate"
attr unit bps
vector 112 MinimalAttackNetwork.masterClock.eth[0].phyLayer.outboundEmitter flowOutgoingPacketLengths:vector ETV
attr interpolationmode none
attr recordingmode vector
attr source "packetLength(demuxFlow(merge(packetPushedOut, packetPulledOut)))"
attr title "flow specific outgoing packet lengths"
attr unit b
vector 113 MinimalAttackNetwork.masterClock.eth[0].phyLayer.outboundEmitter flowOutgoingDataRate:vector ETV
attr interpolationmode linear
attr recordingmode vector
attr source "throughput(demuxFlow(merge(packetPushedOut, packetPulledOut)))"
attr title "flow specific outgoing data rate"
attr unit bps
vector 114 MinimalAttackNetwork.masterClock.eth[0].phyLayer.transmitter transmitting:vector ETV
attr interpolationmode sample-hold
attr recordingmode vector
attr source "count(transmissionStarted) - count(transmissionEnded)"
attr title "transmitting state"
attr type int
vector 115 MinimalAttackNetwork.masterClock.eth[0].phyLayer.transmitter throughput:vector ETV
attr interpolationmode linear
attr recordingmode vector
attr source throughput(transmissionEnded)
attr title throughput
attr unit bps
vector 116 MinimalAttackNetwork.masterClock.eth[0].phyLayer.transmitter utilization:vector ETV
attr interpolationmode linear
attr recordingmode vector
attr source "100 * utilization(count(transmissionStarted) - count(transmissionEnded))"
attr title utilization
attr unit %
vector 117 MinimalAttackNetwork.masterClock.eth[0].phyLayer.transmitter transmissionTime:vector ETV
attr interpolationmode none
attr recordingmode vector
attr source packetDuration(transmissionEnded)
attr title "transmission time"
attr unit s
vector 118 MinimalAttackNetwork.masterClock.eth[0].phyLayer.transmitter flowTransmissionTime:vector ETV
attr interpolationmode none
attr recordingmode vector
attr source packetDuration(demuxFlow(transmissionEnded))
attr title "flow transmission time"
attr unit s
vector 119 MinimalAttackNetwork.masterClock.eth[0].phyLayer.phyHeaderChecker incomingPacketLengths:vector ETV
attr interpolationmode none
attr recordingmode vector
attr source "packetLength(merge(packetPushedIn, packetPulledIn))"
attr title "incoming packet lengths"
attr unit b
vector 120 MinimalAttackNetwork.masterClock.eth[0].phyLayer.phyHeaderChecker incomingDataRate:vector ETV
attr interpolationmode linear
attr recordingmode vector
attr source "throughput(merge(packetPushedIn, packetPulledIn))"
attr title "incoming data rate"
attr unit bps
vector 121 MinimalAttackNetwork.masterClock.eth[0].phyLayer.phyHeaderChecker outgoingPacketLengths:vector ETV
attr interpolationmode none
attr recordingmode vector
attr source "packetLength(merge(packetPushedOut, packetPulledOut))"
attr title "outgoing packet lengths"
attr unit b
vector 122 MinimalAttackNetwork.masterClock.eth[0].phyLayer.phyHeaderChecker outgoingDataRate:vector ETV
attr interpolationmode linear
attr recordingmode vector
attr source "throughput(merge(packetPushedOut, packetPulledOut))"
attr title "outgoing data rate"
attr unit bps
vector 123 MinimalAttackNetwork.masterClock.eth[0].phyLayer.phyHeaderChecker droppedPacketLengths:vector ETV
attr interpolationmode none
attr recordingmode vector
attr source packetLength(packetDropped)
attr title "dropped packet lengths"
attr unit b
vector 124 MinimalAttackNetwork.masterClock.eth[0].phyLayer.phyHeaderChecker droppedDataRate:vector ETV
attr interpolationmode linear
attr recordingmode vector
attr source throughput(packetDropped)
attr title "dropped data rate"
attr unit bps
vector 125 MinimalAttackNetwork.masterClock.eth[0].phyLayer.phyHeaderChecker flowIncomingPacketLengths:vector ETV
attr interpolationmode none
attr recordingmode vector
attr source "packetLength(demuxFlow(merge(packetPushedIn, packetPulledIn)))"
attr title "flow specific incoming packet lengths"
attr unit b
vector 126 MinimalAttackNetwork.masterClock.eth[0].phyLayer.phyHeaderChecker flowIncomingDataRate:vector ETV
attr interpolationmode linear
attr recordingmode vector
attr source "throughput(demuxFlow(merge(packetPushedIn, packetPulledIn)))"
attr title "flow specific incoming data rate"
attr unit bps
vector 127 MinimalAttackNetwork.masterClock.eth[0].phyLayer.phyHeaderChecker flowOutgoingPacketLengths:vector ETV
attr interpolationmode none
attr recordingmode vector
attr source "packetLength(demuxFlow(merge(packetPushedOut, packetPulledOut)))"
attr title "flow specific outgoing packet lengths"
attr unit b
vector 128 MinimalAttackNetwork.masterClock.eth[0].phyLayer.phyHeaderChecker flowOutgoingDataRate:vector ETV
attr interpolationmode linear
attr recordingmode vector
attr source "throughput(demuxFlow(merge(packetPushedOut, packetPulledOut)))"
attr title "flow specific outgoing data rate"
attr unit bps
vector 129 MinimalAttackNetwork.masterClock.eth[0].phyLayer.phyHeaderChecker flowDroppedPacketLengths:vector ETV
attr interpolationmode none
attr recordingmode vector
attr source packetLength(demuxFlow(packetDropped))
attr title "flow specific dropped packet lengths"
attr unit b
vector 130 MinimalAttackNetwork.masterClock.eth[0].phyLayer.phyHeaderChecker flowDroppedDataRate:vector ETV
attr interpolationmode linear
attr recordingmode vector
attr source throughput(demuxFlow(packetDropped))
attr title "flow specific dropped data rate"
attr unit bps
vector 131 MinimalAttackNetwork.masterClock.eth[0].phyLayer.inboundEmitter incomingPacketLengths:vector ETV
attr interpolationmode none
attr recordingmode vector
attr source "packetLength(merge(packetPushedIn, packetPulledIn))"
attr title "incoming packet lengths"
attr unit b
vector 132 MinimalAttackNetwork.masterClock.eth[0].phyLayer.inboundEmitter incomingDataRate:vector ETV
attr interpolationmode linear
attr recordingmode vector
attr source "throughput(merge(packetPushedIn, packetPulledIn))"
attr title "incoming data rate"
attr unit bps
vector 133 MinimalAttackNetwork.masterClock.eth[0].phyLayer.inboundEmitter outgoingPacketLengths:vector ETV
attr interpolationmode none
attr recordingmode vector
attr source "packetLength(merge(packetPushedOut, packetPulledOut))"
attr title "outgoing packet lengths"
attr unit b
vector 134 MinimalAttackNetwork.masterClock.eth[0].phyLayer.inboundEmitter outgoingDataRate:vector ETV
attr interpolationmode linear
attr recordingmode vector
attr source "throughput(merge(packetPushedOut, packetPulledOut))"
attr title "outgoing data rate"
attr unit bps
vector 135 MinimalAttackNetwork.masterClock.eth[0].phyLayer.inboundEmitter flowIncomingPacketLengths:vector ETV
attr interpolationmode none
attr recordingmode vector
attr source "packetLength(demuxFlow(merge(packetPushedIn, packetPulledIn)))"
attr title "flow specific incoming packet lengths"
attr unit b
vector 136 MinimalAttackNetwork.masterClock.eth[0].phyLayer.inboundEmitter flowIncomingDataRate:vector ETV
attr interpolationmode linear
attr recordingmode vector
attr source "throughput(demuxFlow(merge(packetPushedIn, packetPulledIn)))"
attr title "flow specific incoming data rate"
attr unit bps
vector 137 MinimalAttackNetwork.masterClock.eth[0].phyLayer.inboundEmitter flowOutgoingPacketLengths:vector ETV
attr interpolationmode none
attr recordingmode vector
attr source "packetLength(demuxFlow(merge(packetPushedOut, packetPulledOut)))"
attr title "flow specific outgoing packet lengths"
attr unit b
vector 138 MinimalAttackNetwork.masterClock.eth[0].phyLayer.inboundEmitter flowOutgoingDataRate:vector ETV
attr interpolationmode linear
attr recordingmode vector
attr source "throughput(demuxFlow(merge(packetPushedOut, packetPulledOut)))"
attr title "flow specific outgoing data rate"
attr unit bps
vector 139 MinimalAttackNetwork.masterClock.eth[0].phyLayer.receiver throughput:vector ETV
attr interpolationmode linear
attr recordingmode vector
attr source throughput(receptionEnded)
attr title throughput
attr unit bps
vector 140 MinimalAttackNetwork.masterClock.eth[0].phyLayer.receiver receptionTime:vector ETV
attr interpolationmode none
attr recordingmode vector
attr source packetDuration(receptionEnded)
attr title "reception time"
attr unit s
vector 141 MinimalAttackNetwork.masterClock.eth[0].phyLayer.receiver flowReceptionTime:vector ETV
attr interpolationmode none
attr recordingmode vector
attr source packetDuration(demuxFlow(receptionEnded))
attr title "flow reception time"
attr unit s
vector 142 MinimalAttackNetwork.masterClock.eth[0] packetDropInterfaceDown:vector(packetBytes) ETV
attr interpolationmode none
attr recordingmode vector(packetBytes)
attr source packetDropReasonIsInterfaceDown(packetDropped)
attr title "packet drops: interface down, packetBytes"
vector 143 MinimalAttackNetwork.masterClock.eth[0] packetDropNoCarrier:vector(packetBytes) ETV
attr interpolationmode none
attr recordingmode vector(packetBytes)
attr source packetDropReasonIsNoCarrier(packetDropped)
attr title "packet drops: no carrier, packetBytes"
vector 144 MinimalAttackNetwork.masterClock.ipv4.ip packetDropAddressResolutionFailed:vector(packetBytes) ETV
attr interpolationmode none
attr recordingmode vector(packetBytes)
attr source packetDropReasonIsAddressResolutionFailed(packetDropped)
attr title "packet drop: address resolution failed, packetBytes"
vector 145 MinimalAttackNetwork.masterClock.ipv4.ip packetDropHopLimitReached:vector(packetBytes) ETV
attr interpolationmode none
attr recordingmode vector(packetBytes)
attr source packetDropReasonIsHopLimitReached(packetDropped)
attr title "packet drop: hop limit reached, packetBytes"
vector 146 MinimalAttackNetwork.masterClock.ipv4.ip packetDropForwardingDisabled:vector(packetBytes) ETV
attr interpolationmode none
attr recordingmode vector(packetBytes)
attr source packetDropReasonIsForwardingDisabled(packetDropped)
attr title "packet drop: forwarding disabled, packetBytes"
vector 147 MinimalAttackNetwork.masterClock.ipv4.ip packetDropNoInterfaceFound:vector(packetBytes) ETV
attr interpolationmode none
attr recordingmode vector(packetBytes)
attr source packetDropReasonIsNoInterfaceFound(packetDropped)
attr title "packet drop: no interface found, packetBytes"
vector 148 MinimalAttackNetwork.masterClock.ipv4.ip packetDropNoRouteFound:vector(packetBytes) ETV
attr interpolationmode none
attr recordingmode vector(packetBytes)
attr source packetDropReasonIsNoRouteFound(packetDropped)
attr title "packet drop: no route found, packetBytes"
vector 149 MinimalAttackNetwork.masterClock.ipv4.ip packetDropUndefined:vector(packetBytes) ETV
attr interpolationmode none
attr recordingmode vector(packetBytes)
attr source packetDropReasonIsUndefined(packetDropped)
attr title "packet drop: undefined, packetBytes"
vector 150 MinimalAttackNetwork.masterClock.udp packetSent:vector(packetBytes) ETV
attr interpolationmode none
attr recordingmode vector(packetBytes)
attr source packetSent
attr title "packets sent, packetBytes"
vector 151 MinimalAttackNetwork.masterClock.udp packetReceived:vector(packetBytes) ETV
attr interpolationmode none
attr recordingmode vector(packetBytes)
attr source packetReceived
attr title "packets received, packetBytes"
vector 152 MinimalAttackNetwork.masterClock.udp passedUpPk:vector(count) ETV
attr interpolationmode none
attr recordingmode vector(count)
attr source packetSentToUpper
attr title "packets passed up, count"
vector 153 MinimalAttackNetwork.masterClock.udp droppedPkWrongPort:vector(count) ETV
attr interpolationmode none
attr recordingmode vector(count)
attr source packetDropReasonIsNoPortFound(packetDropped)
attr title "packets dropped (wrong port), count"
vector 154 MinimalAttackNetwork.masterClock.udp droppedPkBadChecksum:vector(count) ETV
attr interpolationmode none
attr recordingmode vector(count)
attr source packetDropReasonIsIncorrectlyReceived(packetDropped)
attr title "packets dropped (checksum error), count"
vector 155 MinimalAttackNetwork.masterClock.gptp localTime:vector ETV
attr interpolationmode linear
attr recordingmode vector
vector 156 MinimalAttackNetwork.masterClock.gptp timeDifference:vector ETV
attr interpolationmode linear
attr recordingmode vector
vector 157 MinimalAttackNetwork.masterClock.gptp rateRatio:vector ETV
attr interpolationmode sample-hold
attr recordingmode vector
vector 158 MinimalAttackNetwork.masterClock.gptp peerDelay:vector ETV
attr interpolationmode sample-hold
attr recordingmode vector
vector 159 MinimalAttackNetwork.masterClock.gptp packetDropNotAddressedToUs:vector(packetBytes) ETV
attr interpolationmode none
attr recordingmode vector(packetBytes)
attr source packetDropReasonIsNotAddressedToUs(packetDropped)
attr title "packet drop: not addressed to us, packetBytes"
vector 160 MinimalAttackNetwork.centralSwitch.clock.oscillator driftRateChanged:vector ETV
attr interpolationmode sample-hold
attr recordingmode vector
attr title "Oscillator drift rate"
attr unit ppm
vector 161 MinimalAttackNetwork.centralSwitch.clock timeChanged:vector ETV
attr interpolationmode linear
attr recordingmode vector
attr title "Clock time"
vector 162 MinimalAttackNetwork.centralSwitch.gptp localTime:vector ETV
attr interpolationmode linear
attr recordingmode vector
vector 163 MinimalAttackNetwork.centralSwitch.gptp timeDifference:vector ETV
attr interpolationmode linear
attr recordingmode vector
vector 164 MinimalAttackNetwork.centralSwitch.gptp rateRatio:vector ETV
attr interpolationmode sample-hold
attr recordingmode vector
vector 165 MinimalAttackNetwork.centralSwitch.gptp peerDelay:vector ETV
attr interpolationmode sample-hold
attr recordingmode vector
vector 166 MinimalAttackNetwork.centralSwitch.gptp packetDropNotAddressedToUs:vector(packetBytes) ETV
attr interpolationmode none
attr recordingmode vector(packetBytes)
attr source packetDropReasonIsNotAddressedToUs(packetDropped)
attr title "packet drop: not addressed to us, packetBytes"
vector 167 MinimalAttackNetwork.centralSwitch.bridging.directionReverser.reverser incomingPacketLengths:vector ETV
attr interpolationmode none
attr recordingmode vector
attr source "packetLength(merge(packetPushedIn, packetPulledIn))"
attr title "incoming packet lengths"
attr unit b
vector 168 MinimalAttackNetwork.centralSwitch.bridging.directionReverser.reverser incomingDataRate:vector ETV
attr interpolationmode linear
attr recordingmode vector
attr source "throughput(merge(packetPushedIn, packetPulledIn))"
attr title "incoming data rate"
attr unit bps
vector 169 MinimalAttackNetwork.centralSwitch.bridging.directionReverser.reverser outgoingPacketLengths:vector ETV
attr interpolationmode none
attr recordingmode vector
attr source "packetLength(merge(packetPushedOut, packetPulledOut))"
attr title "outgoing packet lengths"
attr unit b
vector 170 MinimalAttackNetwork.centralSwitch.bridging.directionReverser.reverser outgoingDataRate:vector ETV
attr interpolationmode linear
attr recordingmode vector
attr source "throughput(merge(packetPushedOut, packetPulledOut))"
attr title "outgoing data rate"
attr unit bps
vector 171 MinimalAttackNetwork.centralSwitch.bridging.directionReverser.reverser flowIncomingPacketLengths:vector ETV
attr interpolationmode none
attr recordingmode vector
attr source "packetLength(demuxFlow(merge(packetPushedIn, packetPulledIn)))"
attr title "flow specific incoming packet lengths"
attr unit b
vector 172 MinimalAttackNetwork.centralSwitch.bridging.directionReverser.reverser flowIncomingDataRate:vector ETV
attr interpolationmode linear
attr recordingmode vector
attr source "throughput(demuxFlow(merge(packetPushedIn, packetPulledIn)))"
attr title "flow specific incoming data rate"
attr unit bps
vector 173 MinimalAttackNetwork.centralSwitch.bridging.directionReverser.reverser flowOutgoingPacketLengths:vector ETV
attr interpolationmode none
attr recordingmode vector
attr source "packetLength(demuxFlow(merge(packetPushedOut, packetPulledOut)))"
attr title "flow specific outgoing packet lengths"
attr unit b
vector 174 MinimalAttackNetwork.centralSwitch.bridging.directionReverser.reverser flowOutgoingDataRate:vector ETV
attr interpolationmode linear
attr recordingmode vector
attr source "throughput(demuxFlow(merge(packetPushedOut, packetPulledOut)))"
attr title "flow specific outgoing data rate"
attr unit bps
vector 175 MinimalAttackNetwork.centralSwitch.bridging.directionReverser.join packetLengths:vector ETV
attr interpolationmode none
attr recordingmode vector
attr source "packetLength(merge(packetPushed, packetPulled))"
attr title "packet lengths"
attr unit b
vector 176 MinimalAttackNetwork.centralSwitch.bridging.directionReverser.join dataRate:vector ETV
attr interpolationmode linear
attr recordingmode vector
attr source "throughput(merge(packetPushed, packetPulled))"
attr title "data rate"
attr unit bps
vector 177 MinimalAttackNetwork.centralSwitch.bridging.streamIdentifier.identifier incomingPacketLengths:vector ETV
attr interpolationmode none
attr recordingmode vector
attr source "packetLength(merge(packetPushedIn, packetPulledIn))"
attr title "incoming packet lengths"
attr unit b
vector 178 MinimalAttackNetwork.centralSwitch.bridging.streamIdentifier.identifier incomingDataRate:vector ETV
attr interpolationmode linear
attr recordingmode vector
attr source "throughput(merge(packetPushedIn, packetPulledIn))"
attr title "incoming data rate"
attr unit bps
vector 179 MinimalAttackNetwork.centralSwitch.bridging.streamIdentifier.identifier outgoingPacketLengths:vector ETV
attr interpolationmode none
attr recordingmode vector
attr source "packetLength(merge(packetPushedOut, packetPulledOut))"
attr title "outgoing packet lengths"
attr unit b
vector 180 MinimalAttackNetwork.centralSwitch.bridging.streamIdentifier.identifier outgoingDataRate:vector ETV
attr interpolationmode linear
attr recordingmode vector
attr source "throughput(merge(packetPushedOut, packetPulledOut))"
attr title "outgoing data rate"
attr unit bps
vector 181 MinimalAttackNetwork.centralSwitch.bridging.streamIdentifier.identifier flowIncomingPacketLengths:vector ETV
attr interpolationmode none
attr recordingmode vector
attr source "packetLength(demuxFlow(merge(packetPushedIn, packetPulledIn)))"
attr title "flow specific incoming packet lengths"
attr unit b
vector 182 MinimalAttackNetwork.centralSwitch.bridging.streamIdentifier.identifier flowIncomingDataRate:vector ETV
attr interpolationmode linear
attr recordingmode vector
attr source "throughput(demuxFlow(merge(packetPushedIn, packetPulledIn)))"
attr title "flow specific incoming data rate"
attr unit bps
vector 183 MinimalAttackNetwork.centralSwitch.bridging.streamIdentifier.identifier flowOutgoingPacketLengths:vector ETV
attr interpolationmode none
attr recordingmode vector
attr source "packetLength(demuxFlow(merge(packetPushedOut, packetPulledOut)))"
attr title "flow specific outgoing packet lengths"
attr unit b
vector 184 MinimalAttackNetwork.centralSwitch.bridging.streamIdentifier.identifier flowOutgoingDataRate:vector ETV
attr interpolationmode linear
attr recordingmode vector
attr source "throughput(demuxFlow(merge(packetPushedOut, packetPulledOut)))"
attr title "flow specific outgoing data rate"
attr unit bps
vector 185 MinimalAttackNetwork.centralSwitch.bridging.streamFilter.ingress.classifier packetLengths:vector ETV
attr interpolationmode none
attr recordingmode vector
attr source packetLength(packetPushed)
attr title "packet lengths"
attr unit b
vector 186 MinimalAttackNetwork.centralSwitch.bridging.streamFilter.ingress.classifier dataRate:vector ETV
attr interpolationmode linear
attr recordingmode vector
attr source throughput(packetPushed)
attr title "data rate"
attr unit bps
vector 187 MinimalAttackNetwork.centralSwitch.bridging.streamFilter.ingress.gate[0] incomingPacketLengths:vector ETV
attr interpolationmode none
attr recordingmode vector
attr source "packetLength(merge(packetPushedIn, packetPulledIn))"
attr title "incoming packet lengths"
attr unit b
vector 188 MinimalAttackNetwork.centralSwitch.bridging.streamFilter.ingress.gate[0] incomingDataRate:vector ETV
attr interpolationmode linear
attr recordingmode vector
attr source "throughput(merge(packetPushedIn, packetPulledIn))"
attr title "incoming data rate"
attr unit bps
vector 189 MinimalAttackNetwork.centralSwitch.bridging.streamFilter.ingress.gate[0] outgoingPacketLengths:vector ETV
attr interpolationmode none
attr recordingmode vector
attr source "packetLength(merge(packetPushedOut, packetPulledOut))"
attr title "outgoing packet lengths"
attr unit b
vector 190 MinimalAttackNetwork.centralSwitch.bridging.streamFilter.ingress.gate[0] outgoingDataRate:vector ETV
attr interpolationmode linear
attr recordingmode vector
attr source "throughput(merge(packetPushedOut, packetPulledOut))"
attr title "outgoing data rate"
attr unit bps
vector 191 MinimalAttackNetwork.centralSwitch.bridging.streamFilter.ingress.gate[0] flowIncomingPacketLengths:vector ETV
attr interpolationmode none
attr recordingmode vector
attr source "packetLength(demuxFlow(merge(packetPushedIn, packetPulledIn)))"
attr title "flow specific incoming packet lengths"
attr unit b
vector 192 MinimalAttackNetwork.centralSwitch.bridging.streamFilter.ingress.gate[0] flowIncomingDataRate:vector ETV
attr interpolationmode linear
attr recordingmode vector
attr source "throughput(demuxFlow(merge(packetPushedIn, packetPulledIn)))"
attr title "flow specific incoming data rate"
attr unit bps
vector 193 MinimalAttackNetwork.centralSwitch.bridging.streamFilter.ingress.gate[0] flowOutgoingPacketLengths:vector ETV
attr interpolationmode none
attr recordingmode vector
attr source "packetLength(demuxFlow(merge(packetPushedOut, packetPulledOut)))"
attr title "flow specific outgoing packet lengths"
attr unit b
vector 194 MinimalAttackNetwork.centralSwitch.bridging.streamFilter.ingress.gate[0] flowOutgoingDataRate:vector ETV
attr interpolationmode linear
attr recordingmode vector
attr source "throughput(demuxFlow(merge(packetPushedOut, packetPulledOut)))"
attr title "flow specific outgoing data rate"
attr unit bps
vector 195 MinimalAttackNetwork.centralSwitch.bridging.streamFilter.ingress.gate[0] gateState:vector ETV
attr enum CLOSED,OPEN
attr interpolationmode sample-hold
attr recordingmode vector
attr source gateStateChanged
attr title "gate state"
attr type enum
vector 196 MinimalAttackNetwork.centralSwitch.bridging.streamFilter.ingress.gate[1] incomingPacketLengths:vector ETV
attr interpolationmode none
attr recordingmode vector
attr source "packetLength(merge(packetPushedIn, packetPulledIn))"
attr title "incoming packet lengths"
attr unit b
vector 197 MinimalAttackNetwork.centralSwitch.bridging.streamFilter.ingress.gate[1] incomingDataRate:vector ETV
attr interpolationmode linear
attr recordingmode vector
attr source "throughput(merge(packetPushedIn, packetPulledIn))"
attr title "incoming data rate"
attr unit bps
vector 198 MinimalAttackNetwork.centralSwitch.bridging.streamFilter.ingress.gate[1] outgoingPacketLengths:vector ETV
attr interpolationmode none
attr recordingmode vector
attr source "packetLength(merge(packetPushedOut, packetPulledOut))"
attr title "outgoing packet lengths"
attr unit b
vector 199 MinimalAttackNetwork.centralSwitch.bridging.streamFilter.ingress.gate[1] outgoingDataRate:vector ETV
attr interpolationmode linear
attr recordingmode vector
attr source "throughput(merge(packetPushedOut, packetPulledOut))"
attr title "outgoing data rate"
attr unit bps
vector 200 MinimalAttackNetwork.centralSwitch.bridging.streamFilter.ingress.gate[1] flowIncomingPacketLengths:vector ETV
attr interpolationmode none
attr recordingmode vector
attr source "packetLength(demuxFlow(merge(packetPushedIn, packetPulledIn)))"
attr title "flow specific incoming packet lengths"
attr unit b
vector 201 MinimalAttackNetwork.centralSwitch.bridging.streamFilter.ingress.gate[1] flowIncomingDataRate:vector ETV
attr interpolationmode linear
attr recordingmode vector
attr source "throughput(demuxFlow(merge(packetPushedIn, packetPulledIn)))"
attr title "flow specific incoming data rate"
attr unit bps
vector 202 MinimalAttackNetwork.centralSwitch.bridging.streamFilter.ingress.gate[1] flowOutgoingPacketLengths:vector ETV
attr interpolationmode none
attr recordingmode vector
attr source "packetLength(demuxFlow(merge(packetPushedOut, packetPulledOut)))"
attr title "flow specific outgoing packet lengths"
attr unit b
vector 203 MinimalAttackNetwork.centralSwitch.bridging.streamFilter.ingress.gate[1] flowOutgoingDataRate:vector ETV
attr interpolationmode linear
attr recordingmode vector
attr source "throughput(demuxFlow(merge(packetPushedOut, packetPulledOut)))"
attr title "flow specific outgoing data rate"
attr unit bps
vector 204 MinimalAttackNetwork.centralSwitch.bridging.streamFilter.ingress.gate[1] gateState:vector ETV
attr enum CLOSED,OPEN
attr interpolationmode sample-hold
attr recordingmode vector
attr source gateStateChanged
attr title "gate state"
attr type enum
vector 205 MinimalAttackNetwork.centralSwitch.bridging.streamFilter.ingress.gate[2] incomingPacketLengths:vector ETV
attr interpolationmode none
attr recordingmode vector
attr source "packetLength(merge(packetPushedIn, packetPulledIn))"
attr title "incoming packet lengths"
attr unit b
vector 206 MinimalAttackNetwork.centralSwitch.bridging.streamFilter.ingress.gate[2] incomingDataRate:vector ETV
attr interpolationmode linear
attr recordingmode vector
attr source "throughput(merge(packetPushedIn, packetPulledIn))"
attr title "incoming data rate"
attr unit bps
vector 207 MinimalAttackNetwork.centralSwitch.bridging.streamFilter.ingress.gate[2] outgoingPacketLengths:vector ETV
attr interpolationmode none
attr recordingmode vector
attr source "packetLength(merge(packetPushedOut, packetPulledOut))"
attr title "outgoing packet lengths"
attr unit b
vector 208 MinimalAttackNetwork.centralSwitch.bridging.streamFilter.ingress.gate[2] outgoingDataRate:vector ETV
attr interpolationmode linear
attr recordingmode vector
attr source "throughput(merge(packetPushedOut, packetPulledOut))"
attr title "outgoing data rate"
attr unit bps
[...]
2469	145107	0.435	1800
2469	145108	0.435	0
2469	145424	0.436	1800
2469	145425	0.436	0
2469	145741	0.437	1800
2469	145742	0.437	0
2469	146058	0.438	1800
2469	146059	0.438	0
2469	146375	0.439	1800
2469	146376	0.439	0
2469	146697	0.44	1800
2469	146699	0.44	0
2469	147048	0.441	1800
2469	147049	0.441	0
2469	147450	0.442	1800
2469	147451	0.442	0
2469	147767	0.443	1800
2469	147768	0.443	0
2469	148084	0.444	1800
2469	148085	0.444	0
2469	148401	0.445	1800
2469	148402	0.445	0
2469	148718	0.446	1800
2469	148719	0.446	0
2469	149035	0.447	1800
2469	149036	0.447	0
2469	149352	0.448	1800
2469	149353	0.448	0
2469	149669	0.449	1800
2469	149670	0.449	0
2469	149998	0.45	1568
2469	150001	0.45	3368
2469	150004	0.45	1800
2469	150059	0.45001728	0
2469	150399	0.451	1800
2469	150400	0.451	0
2469	150633	0.451473384512	576
2469	150634	0.451473384512	0
2469	150935	0.452	1800
2469	150936	0.452	0
2469	151252	0.453	1800
2469	151253	0.453	0
2469	151569	0.454	1800
2469	151570	0.454	0
2469	151886	0.455	1800
2469	151887	0.455	0
2469	152203	0.456	1800
2469	152204	0.456	0
2469	152520	0.457	1800
2469	152521	0.457	0
2469	152837	0.458	1800
2469	152838	0.458	0
2469	153154	0.459	1800
2469	153155	0.459	0
2469	153476	0.46	1800
2469	153478	0.46	0
2469	153827	0.461	1800
2469	153828	0.461	0
2469	154229	0.462	1800
2469	154230	0.462	0
2469	154546	0.463	1800
2469	154547	0.463	0
2469	154863	0.464	1800
2469	154864	0.464	0
2469	155180	0.465	1800
2469	155181	0.465	0
2469	155497	0.466	1800
2469	155498	0.466	0
2469	155814	0.467	1800
2469	155815	0.467	0
2469	156131	0.468	1800
2469	156132	0.468	0
2469	156448	0.469	1800
2469	156449	0.469	0
2469	156770	0.47	1800
2469	156772	0.47	0
2469	157121	0.471	1800
2469	157122	0.471	0
2469	157523	0.472	1800
2469	157524	0.472	0
2469	157840	0.473	1800
2469	157841	0.473	0
2469	158157	0.474	1800
2469	158158	0.474	0
2469	158474	0.475	1800
2469	158475	0.475	0
2469	158791	0.476	1800
2469	158792	0.476	0
2469	159108	0.477	1800
2469	159109	0.477	0
2469	159425	0.478	1800
2469	159426	0.478	0
2469	159742	0.479	1800
2469	159743	0.479	0
2469	160064	0.48	1800
2469	160066	0.48	0
2469	160415	0.481	1800
2469	160416	0.481	0
2469	160817	0.482	1800
2469	160818	0.482	0
2469	161134	0.483	1800
2469	161135	0.483	0
2469	161451	0.484	1800
2469	161452	0.484	0
2469	161768	0.485	1800
2469	161769	0.485	0
2469	162085	0.486	1800
2469	162086	0.486	0
2469	162402	0.487	1800
2469	162403	0.487	0
2469	162719	0.488	1800
2469	162720	0.488	0
2469	163036	0.489	1800
2469	163037	0.489	0
2469	163358	0.49	1800
2469	163360	0.49	0
2469	163709	0.491	1800
2469	163710	0.491	0
2469	164111	0.492	1800
2469	164112	0.492	0
2469	164428	0.493	1800
2469	164429	0.493	0
2469	164745	0.494	1800
2469	164746	0.494	0
2469	165062	0.495	1800
2469	165063	0.495	0
2469	165379	0.496	1800
2469	165380	0.496	0
2469	165696	0.497	1800
2469	165697	0.497	0
2469	166013	0.498	1800
2469	166014	0.498	0
2469	166330	0.499	1800
2469	166331	0.499	0
2469	166659	0.5	1568
2469	166662	0.5	3368
2469	166665	0.5	1800
2470	43	0	0
2470	105	0.0000196	1.96e-05
2470	387	0.000999982739	0
2470	495	0.001007342739	7.342739e-06
2470	983	0.002	0
2470	1300	0.003	0
2470	1617	0.004	0
2470	1934	0.005	0
2470	2251	0.006	0
2470	2568	0.007	0
2470	2885	0.008	0
2470	3202	0.009	0
2470	3525	0.01	0
2470	3875	0.011	0
2470	4277	0.012	0
2470	4594	0.013	0
2470	4911	0.014	0
2470	5228	0.015	0
2470	5545	0.016	0
2470	5862	0.017	0
2470	6179	0.018	0
2470	6496	0.019	0
2470	6819	0.02	0
2470	7169	0.021	0
2470	7571	0.022	0
2470	7888	0.023	0
2470	8205	0.024	0
2470	8522	0.025	0
2470	8839	0.026	0
2470	9156	0.027	0
2470	9473	0.028	0
2470	9790	0.029	0
2470	10113	0.03	0
2470	10463	0.031	0
2470	10865	0.032	0
2470	11182	0.033	0
2470	11499	0.034	0
2470	11816	0.035	0
2470	12133	0.036	0
2470	12450	0.037	0
2470	12767	0.038	0
2470	13084	0.039	0
2470	13407	0.04	0
2470	13757	0.041	0
2470	14159	0.042	0
2470	14476	0.043	0
2470	14793	0.044	0
2470	15110	0.045	0
2470	15427	0.046	0
2470	15744	0.047	0
2470	16061	0.048	0
2470	16378	0.049	0
2470	16712	0.05	0
2470	16767	0.05001728	1.728e-05
2470	17052	0.050999119672	0
2470	17152	0.051006479672	6.479672e-06
2470	17648	0.052	0
2470	17965	0.053	0
2470	18282	0.054	0
2470	18599	0.055	0
2470	18916	0.056	0
2470	19233	0.057	0
2470	19550	0.058	0
2470	19867	0.059	0
2470	20190	0.06	0
2470	20540	0.061	0
2470	20942	0.062	0
2470	21259	0.063	0
2470	21576	0.064	0
2470	21893	0.065	0
2470	22210	0.066	0
2470	22527	0.067	0
2470	22844	0.068	0
2470	23161	0.069	0
2470	23484	0.07	0
2470	23834	0.071	0
2470	24236	0.072	0
2470	24553	0.073	0
2470	24870	0.074	0
2470	25187	0.075	0
2470	25504	0.076	0
2470	25821	0.077	0
2470	26138	0.078	0
2470	26455	0.079	0
2470	26778	0.08	0
2470	27128	0.081	0
2470	27530	0.082	0
2470	27847	0.083	0
2470	28164	0.084	0
2470	28481	0.085	0
2470	28798	0.086	0
2470	29115	0.087	0
2470	29432	0.088	0
2470	29749	0.089	0
2470	30072	0.09	0
2470	30422	0.091	0
2470	30824	0.092	0
2470	31141	0.093	0
2470	31458	0.094	0
2470	31775	0.095	0
2470	32092	0.096	0
2470	32409	0.097	0
2470	32726	0.098	0
2470	33043	0.099	0
2470	33377	0.1	0
2470	33432	0.10001728	1.728e-05
2470	33773	0.101	0
2470	34007	0.10147139662	0
2470	34309	0.102	0
2470	34626	0.103	0
2470	34943	0.104	0
2470	35260	0.105	0
2470	35577	0.106	0
2470	35894	0.107	0
2470	36211	0.108	0
2470	36528	0.109	0
2470	36851	0.11	0
2470	37201	0.111	0
2470	37603	0.112	0
2470	37920	0.113	0
2470	38237	0.114	0
2470	38554	0.115	0
2470	38871	0.116	0
2470	39188	0.117	0
2470	39505	0.118	0
2470	39822	0.119	0
2470	40145	0.12	0
2470	40495	0.121	0
2470	40897	0.122	0
2470	41214	0.123	0
2470	41531	0.124	0
2470	41848	0.125	0
2470	42165	0.126	0
2470	42482	0.127	0
2470	42799	0.128	0
2470	43116	0.129	0
2470	43439	0.13	0
2470	43789	0.131	0
2470	44191	0.132	0
2470	44508	0.133	0
2470	44825	0.134	0
2470	45142	0.135	0
2470	45459	0.136	0
2470	45776	0.137	0
2470	46093	0.138	0
2470	46410	0.139	0
2470	46733	0.14	0
2470	47083	0.141	0
2470	47485	0.142	0
2470	47802	0.143	0
2470	48119	0.144	0
2470	48436	0.145	0
2470	48753	0.146	0
2470	49070	0.147	0
2470	49387	0.148	0
2470	49704	0.149	0
2470	50038	0.15	0
2470	50093	0.15001728	1.728e-05
2470	50434	0.151	0
2470	50668	0.151473384506	0
2470	50970	0.152	0
2470	51287	0.153	0
2470	51604	0.154	0
2470	51921	0.155	0
2470	52238	0.156	0
2470	52555	0.157	0
2470	52872	0.158	0
2470	53189	0.159	0
2470	53512	0.16	0
2470	53862	0.161	0
2470	54264	0.162	0
2470	54581	0.163	0
2470	54898	0.164	0
2470	55215	0.165	0
2470	55532	0.166	0
2470	55849	0.167	0
2470	56166	0.168	0
2470	56483	0.169	0
2470	56806	0.17	0
2470	57156	0.171	0
2470	57558	0.172	0
2470	57875	0.173	0
2470	58192	0.174	0
2470	58509	0.175	0
2470	58826	0.176	0
2470	59143	0.177	0
2470	59460	0.178	0
2470	59777	0.179	0
2470	60100	0.18	0
2470	60450	0.181	0
2470	60852	0.182	0
2470	61169	0.183	0
2470	61486	0.184	0
2470	61803	0.185	0
2470	62120	0.186	0
2470	62437	0.187	0
2470	62754	0.188	0
2470	63071	0.189	0
2470	63394	0.19	0
2470	63744	0.191	0
2470	64146	0.192	0
2470	64463	0.193	0
2470	64780	0.194	0
2470	65097	0.195	0
2470	65414	0.196	0
2470	65731	0.197	0
2470	66048	0.198	0
2470	66365	0.199	0
2470	66699	0.2	0
2470	66754	0.20001728	1.728e-05
2470	67095	0.201	0
2470	67329	0.201473384519	0
2470	67631	0.202	0
2470	67948	0.203	0
2470	68265	0.204	0
2470	68582	0.205	0
2470	68899	0.206	0
2470	69216	0.207	0
2470	69533	0.208	0
2470	69850	0.209	0
2470	70173	0.21	0
2470	70523	0.211	0
2470	70925	0.212	0
2470	71242	0.213	0
2470	71559	0.214	0
2470	71876	0.215	0
2470	72193	0.216	0
2470	72510	0.217	0
2470	72827	0.218	0
2470	73144	0.219	0
2470	73467	0.22	0
2470	73817	0.221	0
2470	74219	0.222	0
2470	74536	0.223	0
2470	74853	0.224	0
2470	75170	0.225	0
2470	75487	0.226	0
2470	75804	0.227	0
2470	76121	0.228	0
2470	76438	0.229	0
2470	76761	0.23	0
2470	77111	0.231	0
2470	77513	0.232	0
2470	77830	0.233	0
2470	78147	0.234	0
2470	78464	0.235	0
2470	78781	0.236	0
2470	79098	0.237	0
2470	79415	0.238	0
2470	79732	0.239	0
2470	80055	0.24	0
2470	80405	0.241	0
2470	80807	0.242	0
2470	81124	0.243	0
2470	81441	0.244	0
2470	81758	0.245	0
2470	82075	0.246	0
2470	82392	0.247	0
2470	82709	0.248	0
2470	83026	0.249	0
2470	83360	0.25	0
2470	83415	0.25001728	1.728e-05
2470	83756	0.251	0
2470	83990	0.2514733845	0
2470	84292	0.252	0
2470	84609	0.253	0
2470	84926	0.254	0
2470	85243	0.255	0
2470	85560	0.256	0
2470	85877	0.257	0
2470	86194	0.258	0
2470	86511	0.259	0
2470	86834	0.26	0
2470	87184	0.261	0
2470	87586	0.262	0
2470	87903	0.263	0
2470	88220	0.264	0
2470	88537	0.265	0
2470	88854	0.266	0
2470	89171	0.267	0
2470	89488	0.268	0
2470	89805	0.269	0
2470	90128	0.27	0
2470	90478	0.271	0
2470	90880	0.272	0
2470	91197	0.273	0
2470	91514	0.274	0
2470	91831	0.275	0
2470	92148	0.276	0
2470	92465	0.277	0
2470	92782	0.278	0
2470	93099	0.279	0
2470	93422	0.28	0
2470	93772	0.281	0
2470	94174	0.282	0
2470	94491	0.283	0
2470	94808	0.284	0
2470	95125	0.285	0
2470	95442	0.286	0
2470	95759	0.287	0
2470	96076	0.288	0
2470	96393	0.289	0
2470	96716	0.29	0
2470	97066	0.291	0
2470	97468	0.292	0
2470	97785	0.293	0
2470	98102	0.294	0
2470	98419	0.295	0
2470	98736	0.296	0
2470	99053	0.297	0
2470	99370	0.298	0
2470	99687	0.299	0
2470	100021	0.3	0
2470	100076	0.30001728	1.728e-05
2470	100417	0.301	0
2470	100651	0.301473384513	0
2470	100953	0.302	0
2470	101270	0.303	0
2470	101587	0.304	0
2470	101904	0.305	0
2470	102221	0.306	0
2470	102538	0.307	0
2470	102855	0.308	0
2470	103172	0.309	0
2470	103495	0.31	0
2470	103845	0.311	0
2470	104247	0.312	0
2470	104564	0.313	0
2470	104881	0.314	0
2470	105198	0.315	0
2470	105515	0.316	0
2470	105832	0.317	0
2470	106149	0.318	0
2470	106466	0.319	0
2470	106789	0.32	0
2470	107139	0.321	0
2470	107541	0.322	0
2470	107858	0.323	0
2470	108175	0.324	0
2470	108492	0.325	0
2470	108809	0.326	0
2470	109126	0.327	0
2470	109443	0.328	0
2470	109760	0.329	0
2470	110083	0.33	0
2470	110433	0.331	0
2470	110835	0.332	0
2470	111152	0.333	0
2470	111469	0.334	0
2470	111786	0.335	0
2470	112103	0.336	0
2470	112420	0.337	0
2470	112737	0.338	0
2470	113054	0.339	0
2470	113377	0.34	0
2470	113727	0.341	0
2470	114129	0.342	0
2470	114446	0.343	0
2470	114763	0.344	0
2470	115080	0.345	0
2470	115397	0.346	0
2470	115714	0.347	0
2470	116031	0.348	0
2470	116348	0.349	0
2470	116682	0.35	0
2470	116737	0.35001728	1.728e-05
2470	117078	0.351	0
2470	117312	0.351473384505	0
2470	117614	0.352	0
2470	117931	0.353	0
2470	118248	0.354	0
2470	118565	0.355	0
2470	118882	0.356	0
2470	119199	0.357	0
2470	119516	0.358	0
2470	119833	0.359	0
2470	120156	0.36	0
2470	120506	0.361	0
2470	120908	0.362	0
2470	121225	0.363	0
2470	121542	0.364	0
2470	121859	0.365	0
2470	122176	0.366	0
2470	122493	0.367	0
2470	122810	0.368	0
2470	123127	0.369	0
2470	123450	0.37	0
2470	123800	0.371	0
2470	124202	0.372	0
2470	124519	0.373	0
2470	124836	0.374	0
2470	125153	0.375	0
2470	125470	0.376	0
2470	125787	0.377	0
2470	126104	0.378	0
2470	126421	0.379	0
2470	126744	0.38	0
2470	127094	0.381	0
2470	127496	0.382	0
2470	127813	0.383	0
2470	128130	0.384	0
2470	128447	0.385	0
2470	128764	0.386	0
2470	129081	0.387	0
2470	129398	0.388	0
2470	129715	0.389	0
2470	130038	0.39	0
2470	130388	0.391	0
2470	130790	0.392	0
2470	131107	0.393	0
2470	131424	0.394	0
2470	131741	0.395	0
2470	132058	0.396	0
2470	132375	0.397	0
2470	132692	0.398	0
2470	133009	0.399	0
2470	133343	0.4	0
2470	133398	0.40001728	1.728e-05
2470	133739	0.401	0
2470	133973	0.401473384513	0
2470	134275	0.402	0
2470	134592	0.403	0
2470	134909	0.404	0
2470	135226	0.405	0
2470	135543	0.406	0
2470	135860	0.407	0
2470	136177	0.408	0
2470	136494	0.409	0
2470	136817	0.41	0
2470	137167	0.411	0
2470	137569	0.412	0
2470	137886	0.413	0
2470	138203	0.414	0
2470	138520	0.415	0
2470	138837	0.416	0
2470	139154	0.417	0
2470	139471	0.418	0
2470	139788	0.419	0
2470	140111	0.42	0
2470	140461	0.421	0
2470	140863	0.422	0
2470	141180	0.423	0
2470	141497	0.424	0
2470	141814	0.425	0
2470	142131	0.426	0
2470	142448	0.427	0
2470	142765	0.428	0
2470	143082	0.429	0
2470	143405	0.43	0
2470	143755	0.431	0
2470	144157	0.432	0
2470	144474	0.433	0
2470	144791	0.434	0
2470	145108	0.435	0
2470	145425	0.436	0
2470	145742	0.437	0
2470	146059	0.438	0
2470	146376	0.439	0
2470	146699	0.44	0
2470	147049	0.441	0
2470	147451	0.442	0
2470	147768	0.443	0
2470	148085	0.444	0
2470	148402	0.445	0
2470	148719	0.446	0
2470	149036	0.447	0
2470	149353	0.448	0
2470	149670	0.449	0
2470	150004	0.45	0
2470	150059	0.45001728	1.728e-05
2470	150400	0.451	0
2470	150634	0.451473384512	0
2470	150936	0.452	0
2470	151253	0.453	0
2470	151570	0.454	0
2470	151887	0.455	0
2470	152204	0.456	0
2470	152521	0.457	0
2470	152838	0.458	0
2470	153155	0.459	0
2470	153478	0.46	0
2470	153828	0.461	0
2470	154230	0.462	0
2470	154547	0.463	0
2470	154864	0.464	0
2470	155181	0.465	0
2470	155498	0.466	0
2470	155815	0.467	0
2470	156132	0.468	0
2470	156449	0.469	0
2470	156772	0.47	0
2470	157122	0.471	0
2470	157524	0.472	0
2470	157841	0.473	0
2470	158158	0.474	0
2470	158475	0.475	0
2470	158792	0.476	0
2470	159109	0.477	0
2470	159426	0.478	0
2470	159743	0.479	0
2470	160066	0.48	0
2470	160416	0.481	0
2470	160818	0.482	0
2470	161135	0.483	0
2470	161452	0.484	0
2470	161769	0.485	0
2470	162086	0.486	0
2470	162403	0.487	0
2470	162720	0.488	0
2470	163037	0.489	0
2470	163360	0.49	0
2470	163710	0.491	0
2470	164112	0.492	0
2470	164429	0.493	0
2470	164746	0.494	0
2470	165063	0.495	0
2470	165380	0.496	0
2470	165697	0.497	0
2470	166014	0.498	0
2470	166331	0.499	0
2470	166665	0.5	0
2529	31776	0.09501864	-453077.64288213
2529	63782	0.19101864	1911333.3333333
2529	95760	0.28701864	1911333.3333333
2529	127814	0.38301864	1911333.3333333
2529	159744	0.47901864	1911333.3333333
2529	166666	0.5	1776815.2302806
2553	90144	0.270014004	-387849.70194446
2553	123466	0.370014004	307040
2553	156788	0.470014004	319680
2553	166666	0.5	265724.03998186
2690	0	0	0
2690	0	0	0
2690	0	0	0
2690	0	0	0
2690	0	0	0
2690	41	0	1
2690	44	0	0
2690	389	0.000999998014	1
2690	390	0.000999998014	0
2690	16707	0.05	1
2690	16710	0.05	0
2690	17054	0.050999898689	1
2690	17055	0.050999898689	0
2690	33372	0.1	1
2690	33375	0.1	0
2690	34009	0.101471572411	1
2690	34010	0.101471572411	0
2690	50033	0.15	1
2690	50036	0.15	0
2690	50670	0.151473560291	1
2690	50671	0.151473560291	0
2690	66694	0.2	1
2690	66697	0.2	0
2690	67331	0.201473560303	1
2690	67332	0.201473560303	0
2690	83355	0.25	1
2690	83358	0.25	0
2690	83992	0.251473560291	1
2690	83993	0.251473560291	0
2690	100016	0.3	1
2690	100019	0.3	0
2690	100653	0.301473560304	1
2690	100654	0.301473560304	0
2690	116677	0.35	1
2690	116680	0.35	0
2690	117314	0.351473560291	1
2690	117315	0.351473560291	0
2690	133338	0.4	1
2690	133341	0.4	0
2690	133975	0.401473560304	1
2690	133976	0.401473560304	0
2690	149999	0.45	1
2690	150002	0.45	0
2690	150636	0.451473560303	1
2690	150637	0.451473560303	0
2690	166660	0.5	1
2690	166663	0.5	0
2691	0	0	0
2691	0	0	0
2691	0	0	0
2691	0	0	0
2691	0	0	0
2691	41	0	1360
2691	44	0	0
2691	389	0.000999998014	576
2691	390	0.000999998014	0
2691	16707	0.05	1360
2691	16710	0.05	0
2691	17054	0.050999898689	576
2691	17055	0.050999898689	0
2691	33372	0.1	1360
2691	33375	0.1	0
2691	34009	0.101471572411	576
2691	34010	0.101471572411	0
2691	50033	0.15	1360
2691	50036	0.15	0
2691	50670	0.151473560291	576
2691	50671	0.151473560291	0
2691	66694	0.2	1360
2691	66697	0.2	0
2691	67331	0.201473560303	576
2691	67332	0.201473560303	0
2691	83355	0.25	1360
2691	83358	0.25	0
2691	83992	0.251473560291	576
2691	83993	0.251473560291	0
2691	100016	0.3	1360
2691	100019	0.3	0
2691	100653	0.301473560304	576
2691	100654	0.301473560304	0
2691	116677	0.35	1360
2691	116680	0.35	0
2691	117314	0.351473560291	576
2691	117315	0.351473560291	0
2691	133338	0.4	1360
2691	133341	0.4	0
2691	133975	0.401473560304	576
2691	133976	0.401473560304	0
2691	149999	0.45	1360
2691	150002	0.45	0
2691	150636	0.451473560303	576
2691	150637	0.451473560303	0
2691	166660	0.5	1360
2691	166663	0.5	0
2692	44	0	0
2692	390	0.000999998014	0
2692	16710	0.05	0
2692	17055	0.050999898689	0
2692	33375	0.1	0
2692	34010	0.101471572411	0
2692	50036	0.15	0
2692	50671	0.151473560291	0
2692	66697	0.2	0
2692	67332	0.201473560303	0
2692	83358	0.25	0
2692	83993	0.251473560291	0
2692	100019	0.3	0
2692	100654	0.301473560304	0
2692	116680	0.35	0
2692	117315	0.351473560291	0
2692	133341	0.4	0
2692	133976	0.401473560304	0
2692	150002	0.45	0
2692	150637	0.451473560303	0
2692	166663	0.5	0
2775	23902	0.071020921774	-369715.00021837
2775	48471	0.14503738	2190323.6642989
2775	72862	0.21803738	2198465.7534247
2775	97308	0.29150821	2180892.7434194
2775	121577	0.36403738	2212737.3027983
2775	146716	0.440014004	2139710.7615627
2775	166666	0.5	2157570.2435615
2928	0	0	0
2928	0	0	0
2928	0	0	0
2928	0	0	0
2928	0	0	0
2928	383	0.000999982092	1
2928	384	0.000999982092	0
2928	17048	0.050999086646	1
2928	17049	0.050999086646	0
2928	34003	0.101471389169	1
2928	34004	0.101471389169	0
2928	50664	0.151473377056	1
2928	50665	0.151473377056	0
2928	67325	0.201473377063	1
2928	67326	0.201473377063	0
2928	83986	0.251473377049	1
2928	83987	0.251473377049	0
2928	100647	0.301473377062	1
2928	100648	0.301473377062	0
2928	117308	0.351473377049	1
2928	117309	0.351473377049	0
2928	133969	0.401473377068	1
2928	133970	0.401473377068	0
2928	150630	0.451473377061	1
2928	150631	0.451473377061	0
2929	0	0	0
2929	0	0	0
2929	0	0	0
2929	0	0	0
2929	0	0	0
2929	383	0.000999982092	576
2929	384	0.000999982092	0
2929	17048	0.050999086646	576
2929	17049	0.050999086646	0
2929	34003	0.101471389169	576
2929	34004	0.101471389169	0
2929	50664	0.151473377056	576
2929	50665	0.151473377056	0
2929	67325	0.201473377063	576
2929	67326	0.201473377063	0
2929	83986	0.251473377049	576
2929	83987	0.251473377049	0
2929	100647	0.301473377062	576
2929	100648	0.301473377062	0
2929	117308	0.351473377049	576
2929	117309	0.351473377049	0
2929	133969	0.401473377068	576
2929	133970	0.401473377068	0
2929	150630	0.451473377061	576
2929	150631	0.451473377061	0
2930	384	0.000999982092	0
2930	17049	0.050999086646	0
2930	34004	0.101471389169	0
2930	50665	0.151473377056	0
2930	67326	0.201473377063	0
2930	83987	0.251473377049	0
2930	100648	0.301473377062	0
2930	117309	0.351473377049	0
2930	133970	0.401473377068	0
2930	150631	0.451473377061	0
3013	23903	0.071020921774	-368745.2559555
3013	48472	0.14503738	2187513.4784972
3013	72863	0.21803738	2192767.1232877
3013	97309	0.29150821	2178061.6878835
3013	121578	0.36403738	2207001.6794622
3013	146717	0.440014004	2136973.0774034
3013	166666	0.5	2154102.767586
3142	0	0	0
3142	0	0	0
3142	0	0	0
3142	0	0	0
3142	0	0	0
3142	457	0.001000002587	1
3142	458	0.001000002587	0
3142	17122	0.051000131942	1
3142	17123	0.051000131942	0
3142	34012	0.101471625042	1
3142	34013	0.101471625042	0
3142	50673	0.15147361293	1
3142	50674	0.15147361293	0
3142	67334	0.201473612942	1
3142	67335	0.201473612942	0
3142	83995	0.251473612929	1
3142	83996	0.251473612929	0
3142	100656	0.301473612942	1
3142	100657	0.301473612942	0
3142	117317	0.351473612928	1
3142	117318	0.351473612928	0
3142	133978	0.401473612942	1
3142	133979	0.401473612942	0
3142	150639	0.451473612941	1
3142	150640	0.451473612941	0
3143	0	0	0
3143	0	0	0
3143	0	0	0
3143	0	0	0
3143	0	0	0
3143	457	0.001000002587	576
3143	458	0.001000002587	0
3143	17122	0.051000131942	576
3143	17123	0.051000131942	0
3143	34012	0.101471625042	576
3143	34013	0.101471625042	0
3143	50673	0.15147361293	576
3143	50674	0.15147361293	0
3143	67334	0.201473612942	576
3143	67335	0.201473612942	0
3143	83995	0.251473612929	576
3143	83996	0.251473612929	0
3143	100656	0.301473612942	576
3143	100657	0.301473612942	0
3143	117317	0.351473612928	576
3143	117318	0.351473612928	0
3143	133978	0.401473612942	576
3143	133979	0.401473612942	0
3143	150639	0.451473612941	576
3143	150640	0.451473612941	0
3144	458	0.001000002587	0
3144	17123	0.051000131942	0
3144	34013	0.101471625042	0
3144	50674	0.15147361293	0
3144	67335	0.201473612942	0
3144	83996	0.251473612929	0
3144	100657	0.301473612942	0
3144	117318	0.351473612928	0
3144	133979	0.401473612942	0
3144	150640	0.451473612941	0
3227	23904	0.071020921774	-368745.2559555
3227	48473	0.14503738	2187513.4784972
3227	72864	0.21803738	2192767.1232877
3227	97310	0.29150821	2178061.6878835
3227	121579	0.36403738	2207001.6794622
3227	146718	0.440014004	2136973.0774034
3227	166666	0.5	2154102.767586

