version 3
run SpoofingAttack-2-20250831-17:11:09-453262
attr configname SpoofingAttack
attr datetime 20250831-17:11:09
attr datetimef 20250831-171109
attr experiment SpoofingAttack
attr inifile omnetpp.ini
attr iterationvars ""
attr iterationvarsd ""
attr iterationvarsf ""
attr measurement ""
attr network MinimalAttackNetwork
attr processid 453262
attr repetition 2
attr replication #2
attr resultdir results_flat
attr runnumber 2
attr seedset 2
config image-path ../../../../SharedRoom/omnetpp-ml-workspace/inet4.5/images
config extends Baseline
config description "Spoofing attack impersonating critical sensor (Label: spoofing_attack)"
config *.compromisedNode.numApps 1
config *.compromisedNode.app[0].typename UdpSourceApp
config *.compromisedNode.app[0].source.packetNameFormat "\"SPOOFED_SENSOR-%c\""
config *.compromisedNode.app[0].source.packetLength 175B
config *.compromisedNode.app[0].source.productionInterval 100us
config *.compromisedNode.app[0].source.startTime 150ms
config *.compromisedNode.app[0].source.stopTime 350ms
config *.compromisedNode.app[0].io.destAddress "\"mainECU\""
config *.compromisedNode.app[0].io.destPort 5000
config *.compromisedNode.bridging.streamIdentifier.identifier.mapping "[{stream: \"critical_control\", packetFilter: expr(has(udp) && udp.destPort == 5000)}]"
config *.compromisedNode.bridging.streamCoder.encoder.mapping "[{stream: \"critical_control\", pcp: 7, vlan: 10}]"
config extends General
config description "Baseline: Normal TSN operation without attacks (Label: normal)"
config *.centralSwitch.bridging.streamFilter.ingress.hasDefaultPath false
config *.criticalSensor.numApps 2
config *.criticalSensor.app[0].typename UdpSourceApp
config *.criticalSensor.app[0].source.packetNameFormat "\"CRITICAL_SENSOR-%c\""
config *.criticalSensor.app[0].source.packetLength 175B
config *.criticalSensor.app[0].source.productionInterval 1ms
config *.criticalSensor.app[0].source.startTime 10ms
config *.criticalSensor.app[0].io.destAddress "\"mainECU\""
config *.criticalSensor.app[0].io.destPort 5000
config *.criticalSensor.app[1].typename UdpSourceApp
config *.criticalSensor.app[1].source.packetNameFormat "\"SENSOR_MON-%c\""
config *.criticalSensor.app[1].source.packetLength 150B
config *.criticalSensor.app[1].source.productionInterval 50ms
config *.criticalSensor.app[1].source.startTime 12ms
config *.criticalSensor.app[1].io.destAddress "\"display\""
config *.criticalSensor.app[1].io.destPort 7000
config *.display.numApps 3
config *.display.app[0].typename UdpSinkApp
config *.display.app[0].io.localPort 6000
config *.display.app[1].typename UdpSinkApp
config *.display.app[1].io.localPort 7000
config *.display.app[2].typename UdpSourceApp
config *.display.app[2].source.packetNameFormat "\"DISPLAY_UPDATE-%c\""
config *.display.app[2].source.packetLength 120B
config *.display.app[2].source.productionInterval 50ms
config *.display.app[2].source.startTime 15ms
config *.display.app[2].io.destAddress "\"mainECU\""
config *.display.app[2].io.destPort 6003
config *.mainECU.numApps 3
config *.mainECU.app[0].typename UdpSinkApp
config *.mainECU.app[0].io.localPort 5000
config *.mainECU.app[1].typename UdpSourceApp
config *.mainECU.app[1].source.packetNameFormat "\"STATUS_UPDATE-%c\""
config *.mainECU.app[1].source.packetLength 100B
config *.mainECU.app[1].source.productionInterval 10ms
config *.mainECU.app[1].source.startTime 20ms
config *.mainECU.app[1].io.destAddress "\"display\""
config *.mainECU.app[1].io.destPort 6000
config *.mainECU.app[2].typename UdpSinkApp
config *.mainECU.app[2].io.localPort 6003
config network MinimalAttackNetwork
config sim-time-limit 500ms
config description "Minimal TSN attack scenarios for ML training (500ms)"
config cmdenv-interactive false
config repeat 10
config seed-set 2
config *.dataCollector.outputFile "\"results_flat/tsn_signals_SpoofingAttack-#2.csv\""
config user-interface Cmdenv
config *.masterClock.eth[*].bitrate 100Mbps
config *.centralSwitch.eth[0].bitrate 100Mbps
config *.centralSwitch.eth[1].bitrate 1Gbps
config *.centralSwitch.eth[2].bitrate 100Mbps
config *.centralSwitch.eth[3].bitrate 100Mbps
config *.centralSwitch.eth[4].bitrate 100Mbps
config *.centralSwitch.eth[5].bitrate 100Mbps
config *.mainECU.eth[*].bitrate 1Gbps
config *.criticalSensor.eth[*].bitrate 100Mbps
config *.display.eth[*].bitrate 100Mbps
config *.attackerExternal.eth[*].bitrate 100Mbps
config *.compromisedNode.eth[*].bitrate 100Mbps
config *.configurator.config "xml(\"<config><interface hosts='**' address='10.0.0.x' netmask='255.255.255.0'/></config>\")"
config *.centralSwitch.typename TsnSwitch
config *.mainECU.typename TsnDevice
config *.criticalSensor.typename TsnDevice
config *.display.typename TsnDevice
config *.attackerExternal.typename TsnDevice
config *.compromisedNode.typename TsnDevice
config *.masterClock.typename TsnClock
config *.mainECU.hasUdp true
config *.criticalSensor.hasUdp true
config *.display.hasUdp true
config *.attackerExternal.hasUdp true
config *.compromisedNode.hasUdp true
config *.mainECU.hasIpv4 true
config *.criticalSensor.hasIpv4 true
config *.display.hasIpv4 true
config *.attackerExternal.hasIpv4 true
config *.compromisedNode.hasIpv4 true
config *.*.hasTimeSynchronization true
config *.*.clock.oscillator.driftRate "uniform(-20ppm, 20ppm)"
config **.gptp.syncInterval 10ms
config **.gptp.syncInitialOffset 1ms
config **.gptp.pdelayInterval 50ms
config **.gptp.pdelayInitialOffset 1ms
config *.masterClock.gptp.masterPorts "[\"eth0\"]"
config *.centralSwitch.gptp.slavePort "\"eth0\""
config *.centralSwitch.gptp.masterPorts "[\"eth1\",\"eth2\",\"eth3\",\"eth4\",\"eth5\"]"
config *.*.hasOutgoingStreams true
config *.centralSwitch.hasEgressTrafficShaping true
config *.centralSwitch.hasIncomingStreams true
config *.criticalSensor.bridging.streamIdentifier.typename StreamIdentifierLayer
config *.criticalSensor.bridging.streamCoder.typename StreamCoderLayer
config *.centralSwitch.bridging.streamCoder.encoder.mapping "[{stream: \"critical_control\", pcp: 7, vlan: 10}, {stream: \"status_updates\", pcp: 5, vlan: 30}, {stream: \"display_data\", pcp: 3, vlan: 20}, {stream: \"external_attack\", pcp: 0, vlan: 40}, {stream: \"compromised_attack\", pcp: 0, vlan: 41}]"
config *.centralSwitch.bridging.streamCoder.decoder.mapping "[{stream: \"critical_control\", pcp: 7, destination: \"mainECU\"}, {stream: \"status_updates\", pcp: 5, destination: \"mainECU\"}, {stream: \"display_data\", pcp: 3, destination: \"mainECU\"}, {stream: \"external_attack\", pcp: 0, source: \"attackerExternal\", destination: \"mainECU\"}, {stream: \"compromised_attack\", pcp: 0, source: \"compromisedNode\", destination: \"mainECU\"}]"
config "*.centralSwitch.bridging.streamCoder.decoder.mapping +" "[{pcp: 4, stream: \"sensor_monitoring\"}]"
config "*.centralSwitch.bridging.streamCoder.decoder.mapping +" "[{pcp: 4, destination: \"display\", stream: \"sensor_monitoring\"}]"
config "*.centralSwitch.bridging.streamCoder.decoder.mapping +" "[{stream: \"sensor_monitoring\", packetFilter: expr(has(udp) && udp.destPort == 7000)}]"
config "*.centralSwitch.bridging.streamCoder.encoder.mapping +" "[{stream: \"sensor_monitoring\", pcp: 4, vlan: 25}]"
config "*.centralSwitch.bridging.streamCoder.decoder.mapping +" "[{destination: \"01:80:C2:00:00:0E\", stream: \"gptp\"}]"
config "*.centralSwitch.bridging.streamCoder.decoder.mapping +" "[{packetFilter: expr(ethernetMacHeader.typeOrLength == 0x88f7), stream: \"gptp\"}]"
config "*.centralSwitch.bridging.streamCoder.decoder.mapping +" "[{pcp: 0, stream: \"default_stream\"}]"
config "*.centralSwitch.bridging.streamIdentifier.identifier.mapping +" "[{stream: \"gptp\", packetFilter: expr(has(etherTypeInd) && etherTypeInd.etherType == 0x88f7)}]"
config "*.centralSwitch.bridging.streamIdentifier.identifier.mapping +" "[{stream: \"gptp\", packetFilter: expr(ethernetMacHeader.typeOrLength == 0x88f7)}]"
config "*.centralSwitch.bridging.streamIdentifier.identifier.mapping +" "[{stream: \"gptp\", packetFilter: expr(etherType == 0x88f7)}]"
config "*.centralSwitch.bridging.streamIdentifier.identifier.mapping +" "[{stream: \"gptp\", packetFilter: expr(destAddress == \"01:80:C2:00:00:0E\")}]"
config *.centralSwitch.bridging.streamFilter.ingress.numStreams 8
config *.centralSwitch.bridging.streamFilter.ingress.classifier.mapping "{\"critical_control\": 0, \"status_updates\": 1, \"external_attack\": 2, \"compromised_attack\": 3, \"display_data\": 4, \"gptp\": 5, \"default_stream\": 6, \"sensor_monitoring\": 7}"
config *.centralSwitch.bridging.streamFilter.ingress.hasDefaultPath false
config *.centralSwitch.bridging.streamFilter.ingress.classifier.mode "\"both\""
config *.centralSwitch.bridging.streamFilter.ingress.classifier.defaultGateIndex 5
config *.centralSwitch.bridging.streamFilter.ingress.meter[*].typename DualRateThreeColorMeter
config *.centralSwitch.bridging.streamFilter.ingress.meter[0].display-name critical_control
config *.centralSwitch.bridging.streamFilter.ingress.meter[1].display-name status_updates
config *.centralSwitch.bridging.streamFilter.ingress.meter[2].display-name external_attack
config *.centralSwitch.bridging.streamFilter.ingress.meter[3].display-name compromised_attack
config *.centralSwitch.bridging.streamFilter.ingress.meter[4].display-name display_data
config *.centralSwitch.bridging.streamFilter.ingress.meter[0].committedInformationRate 10Mbps
config *.centralSwitch.bridging.streamFilter.ingress.meter[0].committedBurstSize 5kB
config *.centralSwitch.bridging.streamFilter.ingress.meter[0].excessInformationRate 5Mbps
config *.centralSwitch.bridging.streamFilter.ingress.meter[0].excessBurstSize 3kB
config *.centralSwitch.bridging.streamFilter.ingress.meter[1].committedInformationRate 5Mbps
config *.centralSwitch.bridging.streamFilter.ingress.meter[1].committedBurstSize 3kB
config *.centralSwitch.bridging.streamFilter.ingress.meter[1].excessInformationRate 2Mbps
config *.centralSwitch.bridging.streamFilter.ingress.meter[1].excessBurstSize 1kB
config *.centralSwitch.bridging.streamFilter.ingress.meter[2].committedInformationRate 50kbps
config *.centralSwitch.bridging.streamFilter.ingress.meter[2].committedBurstSize 256B
config *.centralSwitch.bridging.streamFilter.ingress.meter[2].excessInformationRate 25kbps
config *.centralSwitch.bridging.streamFilter.ingress.meter[2].excessBurstSize 128B
config *.centralSwitch.bridging.streamFilter.ingress.meter[3].committedInformationRate 50kbps
config *.centralSwitch.bridging.streamFilter.ingress.meter[3].committedBurstSize 256B
config *.centralSwitch.bridging.streamFilter.ingress.meter[3].excessInformationRate 25kbps
config *.centralSwitch.bridging.streamFilter.ingress.meter[3].excessBurstSize 128B
config *.centralSwitch.bridging.streamFilter.ingress.meter[4].committedInformationRate 2Mbps
config *.centralSwitch.bridging.streamFilter.ingress.meter[4].committedBurstSize 2kB
config *.centralSwitch.bridging.streamFilter.ingress.meter[4].excessInformationRate 1Mbps
config *.centralSwitch.bridging.streamFilter.ingress.meter[4].excessBurstSize 1kB
config *.centralSwitch.bridging.streamFilter.ingress.meter[5].display-name gptp
config *.centralSwitch.bridging.streamFilter.ingress.meter[5].committedInformationRate 1Mbps
config *.centralSwitch.bridging.streamFilter.ingress.meter[5].committedBurstSize 1kB
config *.centralSwitch.bridging.streamFilter.ingress.meter[5].excessInformationRate 1Mbps
config *.centralSwitch.bridging.streamFilter.ingress.meter[5].excessBurstSize 1kB
config *.centralSwitch.bridging.streamFilter.ingress.meter[6].display-name default_stream
config *.centralSwitch.bridging.streamFilter.ingress.meter[6].committedInformationRate 1bps
config *.centralSwitch.bridging.streamFilter.ingress.meter[6].committedBurstSize 1B
config *.centralSwitch.bridging.streamFilter.ingress.meter[6].excessInformationRate 1bps
config *.centralSwitch.bridging.streamFilter.ingress.meter[6].excessBurstSize 1B
config *.centralSwitch.bridging.streamFilter.ingress.meter[7].display-name sensor_monitoring
config *.centralSwitch.bridging.streamFilter.ingress.meter[7].committedInformationRate 3Mbps
config *.centralSwitch.bridging.streamFilter.ingress.meter[7].committedBurstSize 2kB
config *.centralSwitch.bridging.streamFilter.ingress.meter[7].excessInformationRate 1Mbps
config *.centralSwitch.bridging.streamFilter.ingress.meter[7].excessBurstSize 1kB
config *.centralSwitch.bridging.streamFilter.ingress.filter[5].labelFilter "\"green or yellow\""
config *.criticalSensor.bridging.streamIdentifier.identifier.mapping "[{stream: \"critical_control\", packetFilter: expr(has(udp) && udp.destPort == 5000)}]"
config *.criticalSensor.bridging.streamCoder.encoder.mapping "[{stream: \"critical_control\", pcp: 7, vlan: 10}]"
config *.mainECU.bridging.streamIdentifier.identifier.mapping "[{stream: \"status_updates\", packetFilter: expr(has(udp) && udp.destPort == 6000)}]"
config *.mainECU.bridging.streamCoder.encoder.mapping "[{stream: \"status_updates\", pcp: 5, vlan: 30}]"
config "*.criticalSensor.bridging.streamIdentifier.identifier.mapping +" "[{stream: \"sensor_monitoring\", packetFilter: expr(has(udp) && udp.destPort == 7000)}]"
config "*.criticalSensor.bridging.streamCoder.encoder.mapping +" "[{stream: \"sensor_monitoring\", pcp: 4, vlan: 25}]"
config *.display.bridging.streamIdentifier.identifier.mapping "[{stream: \"display_data\", packetFilter: expr(has(udp) && udp.destPort == 6003)}]"
config *.display.bridging.streamCoder.encoder.mapping "[{stream: \"display_data\", pcp: 3, vlan: 20}]"
config *.attackerExternal.bridging.streamIdentifier.identifier.mapping "[{stream: \"external_attack\", packetFilter: expr(has(udp) && udp.destPort == 5000)}]"
config *.attackerExternal.bridging.streamCoder.encoder.mapping "[{stream: \"external_attack\", pcp: 0, vlan: 40}]"
config *.compromisedNode.bridging.streamIdentifier.identifier.mapping "[{stream: \"compromised_attack\", packetFilter: expr(has(udp) && (udp.destPort == 8888 || udp.destPort == 5000))}]"
config *.compromisedNode.bridging.streamCoder.encoder.mapping "[{stream: \"compromised_attack\", pcp: 0, vlan: 41}]"
config *.criticalSensor.hasOutgoingStreams true
config *.display.hasOutgoingStreams true
config *.attackerExternal.hasOutgoingStreams true
config *.compromisedNode.hasOutgoingStreams true
config *.mainECU.hasOutgoingStreams true
config *.masterClock.hasOutgoingStreams true
config *.masterClock.bridging.streamIdentifier.identifier.mapping "[{stream: \"gptp\", packetFilter: expr(etherType == 0x88f7)}]"
config *.masterClock.bridging.streamCoder.encoder.mapping "[{stream: \"gptp\", pcp: 6, vlan: 0}]"
config "*.criticalSensor.bridging.streamIdentifier.identifier.mapping +" "[{stream: \"default_stream\", packetFilter: expr(true)}]"
config "*.criticalSensor.bridging.streamCoder.encoder.mapping        +" "[{stream: \"default_stream\",  pcp: 0, vlan: 0}]"
config "*.display.bridging.streamIdentifier.identifier.mapping       +" "[{stream: \"default_stream\", packetFilter: expr(true)}]"
config "*.display.bridging.streamCoder.encoder.mapping               +" "[{stream: \"default_stream\",  pcp: 0, vlan: 0}]"
config "*.attackerExternal.bridging.streamIdentifier.identifier.mapping +" "[{stream: \"default_stream\", packetFilter: expr(true)}]"
config "*.attackerExternal.bridging.streamCoder.encoder.mapping         +" "[{stream: \"default_stream\",  pcp: 0, vlan: 0}]"
config "*.compromisedNode.bridging.streamIdentifier.identifier.mapping  +" "[{stream: \"default_stream\", packetFilter: expr(true)}]"
config "*.compromisedNode.bridging.streamCoder.encoder.mapping          +" "[{stream: \"default_stream\",  pcp: 0, vlan: 0}]"
config "*.mainECU.bridging.streamIdentifier.identifier.mapping          +" "[{stream: \"default_stream\", packetFilter: expr(true)}]"
config "*.mainECU.bridging.streamCoder.encoder.mapping                  +" "[{stream: \"default_stream\",  pcp: 0, vlan: 0}]"
config *.centralSwitch.eth[*].macLayer.queue.numTrafficClasses 8
config *.centralSwitch.eth[*].macLayer.queue.classifier.typename PcpClassifier
config *.centralSwitch.eth[*].macLayer.queue.classifier.pcpToGateIndex "[0, 1, 2, 3, 4, 5, 6, 7]"
config *.centralSwitch.eth[*].macLayer.queue.transmissionGate[*].typename PeriodicGate
config *.centralSwitch.eth[*].macLayer.queue.transmissionGate[7].durations "[250us, 250us]"
config *.centralSwitch.eth[*].macLayer.queue.transmissionGate[6].durations "[200us, 300us]"
config *.centralSwitch.eth[*].macLayer.queue.transmissionGate[5].durations "[150us, 350us]"
config *.centralSwitch.eth[*].macLayer.queue.transmissionGate[4].durations "[100us, 400us]"
config *.centralSwitch.eth[*].macLayer.queue.transmissionGate[3].durations "[100us, 400us]"
config *.centralSwitch.eth[*].macLayer.queue.transmissionGate[2].durations "[50us, 450us]"
config *.centralSwitch.eth[*].macLayer.queue.transmissionGate[1].durations "[50us, 450us]"
config *.centralSwitch.eth[*].macLayer.queue.transmissionGate[0].durations "[25us, 475us]"
config *.centralSwitch.hasStreamRedundancy false
config *.centralSwitch.hasIngressTrafficFiltering true
config *.centralSwitch.bridging.streamIdentifier.typename StreamIdentifierLayer
config *.centralSwitch.bridging.streamIdentifier.identifier.typename StreamIdentifier
config *.centralSwitch.hasEgressTrafficShaping true
config *.centralSwitch.hasStreamFiltering true
config *.centralSwitch.hasStreamPolicing true
config *.centralSwitch.bridging.streamFilter.ingress.meter[*].colorAware false
config **.app[*].endToEndDelay:vector.result-recording-modes all
config **.app[*].endToEndDelay:vector.vector-recording true
config **.app[*].endToEndDelay:histogram.result-recording-modes all
config **.bitrate:vector.result-recording-modes all
config **.bitrate:vector.vector-recording true
config **.throughput:vector.result-recording-modes all
config **.throughput:vector.vector-recording true
config **.datarate:vector.result-recording-modes all
config **.datarate:vector.vector-recording true
config **.queue.queueLength:vector.result-recording-modes all
config **.queue.queueLength:vector.vector-recording true
config **.queue.queueingTime:vector.result-recording-modes all
config **.queue.queueingTime:vector.vector-recording true
config **.queue.queueBitLength:vector.result-recording-modes all
config **.queue.queueBitLength:vector.vector-recording true
config **.packetDropped:count.result-recording-modes all
config **.packetDropped:vector.result-recording-modes all
config **.packetDropped:vector.vector-recording true
config **.packetSent:count.result-recording-modes all
config **.packetReceived:count.result-recording-modes all
config **.rxPkOk:count.result-recording-modes all
config **.rxPkOk:vector.result-recording-modes all
config **.txPk:count.result-recording-modes all
config **.txPk:vector.result-recording-modes all
config **.bridging.streamFilter.ingress.meter[*].committedConformingPackets:count.result-recording-modes all
config **.bridging.streamFilter.ingress.meter[*].committedConformingPackets:vector.result-recording-modes all
config **.bridging.streamFilter.ingress.meter[*].committedConformingPackets:vector.vector-recording true
config **.bridging.streamFilter.ingress.meter[*].committedNonConformingPackets:count.result-recording-modes all
config **.bridging.streamFilter.ingress.meter[*].committedNonConformingPackets:vector.result-recording-modes all
config **.bridging.streamFilter.ingress.meter[*].committedNonConformingPackets:vector.vector-recording true
config **.bridging.streamFilter.ingress.meter[*].excessConformingPackets:count.result-recording-modes all
config **.bridging.streamFilter.ingress.meter[*].excessConformingPackets:vector.result-recording-modes all
config **.bridging.streamFilter.ingress.meter[*].excessConformingPackets:vector.vector-recording true
config **.bridging.streamFilter.ingress.meter[*].packetFiltered:count.result-recording-modes all
config **.bridging.streamFilter.ingress.meter[*].packetFiltered:vector.result-recording-modes all
config **.bridging.streamFilter.ingress.meter[*].packetFiltered:vector.vector-recording true
config **.bridging.streamCoder.packetEncoded:count.result-recording-modes all
config **.bridging.streamCoder.packetDecoded:count.result-recording-modes all
config **.bridging.streamIdentifier.packetClassified:count.result-recording-modes all
config **.bridging.streamIdentifier.packetClassified:vector.result-recording-modes all
config **.bridging.streamIdentifier.packetClassified:vector.vector-recording true
config **.queue.transmissionGate[*].gateStateChanged:vector.result-recording-modes all
config **.queue.transmissionGate[*].gateStateChanged:vector.vector-recording true
config **.queue.transmissionSelectionAlgorithm[*].credit:vector.result-recording-modes all
config **.queue.transmissionSelectionAlgorithm[*].credit:vector.vector-recording true
config **.gptp.clockServo.offsetNanoseconds:vector.result-recording-modes all
config **.gptp.clockServo.offsetNanoseconds:vector.vector-recording true
config **.gptp.clockServo.driftPpm:vector.result-recording-modes all
config **.gptp.clockServo.driftPpm:vector.vector-recording true
config **.gptp.clockServo.rateRatio:vector.result-recording-modes all
config **.gptp.clockServo.rateRatio:vector.vector-recording true
config **.mac.txPk:count.result-recording-modes all
config **.mac.rxPkOk:count.result-recording-modes all
config **.mac.frameSequenceErrors:count.result-recording-modes all
config **.mac.alignmentErrors:count.result-recording-modes all
config **.phy.txPk:count.result-recording-modes all
config **.phy.rxPkOk:count.result-recording-modes all
config **.phy.symbolErrors:count.result-recording-modes all
config **.ipv4.routingTable.routeAdded:count.result-recording-modes all
config **.ipv4.routingTable.routeDeleted:count.result-recording-modes all
config **.udp.packetSent:count.result-recording-modes all
config **.udp.packetReceived:count.result-recording-modes all
config **.udp.passedUpPk:count.result-recording-modes all
config **.pcp0:count.result-recording-modes all
config **.pcp1:count.result-recording-modes all
config **.pcp2:count.result-recording-modes all
config **.pcp3:count.result-recording-modes all
config **.pcp4:count.result-recording-modes all
config **.pcp5:count.result-recording-modes all
config **.pcp6:count.result-recording-modes all
config **.pcp7:count.result-recording-modes all
config *.attackerExternal.numApps 0
config *.compromisedNode.numApps 0
config *.visualizer.typename IntegratedCanvasVisualizer
config *.visualizer.dataLinkVisualizer.displayLinks true
config *.visualizer.dataLinkVisualizer.activityLevel "\"protocol\""
config *.visualizer.dataLinkVisualizer.fadeOutMode "\"simulationTime\""
config *.visualizer.dataLinkVisualizer.fadeOutTime 0.2s
config *.visualizer.statisticVisualizer.displayStatistics true
config *.visualizer.statisticVisualizer.signalName "\"packetReceived\""
config *.visualizer.statisticVisualizer.sourceFilter "\"**.app[*]\""
config *.visualizer.statisticVisualizer.format "\"count\""
config *.dataCollector.outputFile "\"results_flat/tsn_signals_SpoofingAttack-#2.csv\""
config *.dataCollector.windowLength 1ms
config *.dataCollector.emitCSV true
config *.dataCollector.emitPCPBreakdowns false
config *.dataCollector.emitRaw false
config *.dataCollector.emitNDJSON false
config *.dataCollector.emitPerStreamRows true
config *.dataCollector.includeControlFramesInThroughput true
config *.dataCollector.emitZeroIfNoSamples false
config *.mainECU.numApps 4
config *.mainECU.app[3].typename UdpBasicApp
config *.mainECU.app[3].localPort 6100
config *.mainECU.app[3].destAddresses "\"display\""
config *.mainECU.app[3].destPort 6000
config *.mainECU.app[3].messageLength 256B
config *.mainECU.app[3].sendInterval 2ms
config *.mainECU.app[3].startTime 10ms
config *.mainECU.app[3].stopTime 0.5s
config *.mlInferenceEngine.modelPath "\"../ml_models/tsn_extended_fdeep.json\""
config *.mlInferenceEngine.normPath "\"../ml_models/tsn_extended_norm.json\""
config *.mlInferenceEngine.inferenceInterval 1ms
config *.mlInferenceEngine.anomalyThreshold 0.7
config result-dir results_flat
config output-scalar-file results_flat/SpoofingAttack-2.sca
config output-vector-file results_flat/SpoofingAttack-2.vec
config **.result-recording-modes default
config **.vector-recording false
config **.scalar-recording false

vector 0 MinimalAttackNetwork.masterClock.clock.oscillator driftRateChanged:vector ETV
attr interpolationmode sample-hold
attr recordingmode vector
attr title "Oscillator drift rate"
attr unit ppm
vector 1 MinimalAttackNetwork.masterClock.clock timeChanged:vector ETV
attr interpolationmode linear
attr recordingmode vector
attr title "Clock time"
vector 2 MinimalAttackNetwork.masterClock.ethernet.macHeaderInserter incomingPacketLengths:vector ETV
attr interpolationmode none
attr recordingmode vector
attr source "packetLength(merge(packetPushedIn, packetPulledIn))"
attr title "incoming packet lengths"
attr unit b
vector 3 MinimalAttackNetwork.masterClock.ethernet.macHeaderInserter incomingDataRate:vector ETV
attr interpolationmode linear
attr recordingmode vector
attr source "throughput(merge(packetPushedIn, packetPulledIn))"
attr title "incoming data rate"
attr unit bps
vector 4 MinimalAttackNetwork.masterClock.ethernet.macHeaderInserter outgoingPacketLengths:vector ETV
attr interpolationmode none
attr recordingmode vector
attr source "packetLength(merge(packetPushedOut, packetPulledOut))"
attr title "outgoing packet lengths"
attr unit b
vector 5 MinimalAttackNetwork.masterClock.ethernet.macHeaderInserter outgoingDataRate:vector ETV
attr interpolationmode linear
attr recordingmode vector
attr source "throughput(merge(packetPushedOut, packetPulledOut))"
attr title "outgoing data rate"
attr unit bps
vector 6 MinimalAttackNetwork.masterClock.ethernet.macHeaderInserter flowIncomingPacketLengths:vector ETV
attr interpolationmode none
attr recordingmode vector
attr source "packetLength(demuxFlow(merge(packetPushedIn, packetPulledIn)))"
attr title "flow specific incoming packet lengths"
attr unit b
vector 7 MinimalAttackNetwork.masterClock.ethernet.macHeaderInserter flowIncomingDataRate:vector ETV
attr interpolationmode linear
attr recordingmode vector
attr source "throughput(demuxFlow(merge(packetPushedIn, packetPulledIn)))"
attr title "flow specific incoming data rate"
attr unit bps
vector 8 MinimalAttackNetwork.masterClock.ethernet.macHeaderInserter flowOutgoingPacketLengths:vector ETV
attr interpolationmode none
attr recordingmode vector
attr source "packetLength(demuxFlow(merge(packetPushedOut, packetPulledOut)))"
attr title "flow specific outgoing packet lengths"
attr unit b
vector 9 MinimalAttackNetwork.masterClock.ethernet.macHeaderInserter flowOutgoingDataRate:vector ETV
attr interpolationmode linear
attr recordingmode vector
attr source "throughput(demuxFlow(merge(packetPushedOut, packetPulledOut)))"
attr title "flow specific outgoing data rate"
attr unit bps
vector 10 MinimalAttackNetwork.masterClock.ethernet.paddingInserter incomingPacketLengths:vector ETV
attr interpolationmode none
attr recordingmode vector
attr source "packetLength(merge(packetPushedIn, packetPulledIn))"
attr title "incoming packet lengths"
attr unit b
vector 11 MinimalAttackNetwork.masterClock.ethernet.paddingInserter incomingDataRate:vector ETV
attr interpolationmode linear
attr recordingmode vector
attr source "throughput(merge(packetPushedIn, packetPulledIn))"
attr title "incoming data rate"
attr unit bps
vector 12 MinimalAttackNetwork.masterClock.ethernet.paddingInserter outgoingPacketLengths:vector ETV
attr interpolationmode none
attr recordingmode vector
attr source "packetLength(merge(packetPushedOut, packetPulledOut))"
attr title "outgoing packet lengths"
attr unit b
vector 13 MinimalAttackNetwork.masterClock.ethernet.paddingInserter outgoingDataRate:vector ETV
attr interpolationmode linear
attr recordingmode vector
attr source "throughput(merge(packetPushedOut, packetPulledOut))"
attr title "outgoing data rate"
attr unit bps
vector 14 MinimalAttackNetwork.masterClock.ethernet.paddingInserter flowIncomingPacketLengths:vector ETV
attr interpolationmode none
attr recordingmode vector
attr source "packetLength(demuxFlow(merge(packetPushedIn, packetPulledIn)))"
attr title "flow specific incoming packet lengths"
attr unit b
vector 15 MinimalAttackNetwork.masterClock.ethernet.paddingInserter flowIncomingDataRate:vector ETV
attr interpolationmode linear
attr recordingmode vector
attr source "throughput(demuxFlow(merge(packetPushedIn, packetPulledIn)))"
attr title "flow specific incoming data rate"
attr unit bps
vector 16 MinimalAttackNetwork.masterClock.ethernet.paddingInserter flowOutgoingPacketLengths:vector ETV
attr interpolationmode none
attr recordingmode vector
attr source "packetLength(demuxFlow(merge(packetPushedOut, packetPulledOut)))"
attr title "flow specific outgoing packet lengths"
attr unit b
vector 17 MinimalAttackNetwork.masterClock.ethernet.paddingInserter flowOutgoingDataRate:vector ETV
attr interpolationmode linear
attr recordingmode vector
attr source "throughput(demuxFlow(merge(packetPushedOut, packetPulledOut)))"
attr title "flow specific outgoing data rate"
attr unit bps
vector 18 MinimalAttackNetwork.masterClock.ethernet.fcsInserter incomingPacketLengths:vector ETV
attr interpolationmode none
attr recordingmode vector
attr source "packetLength(merge(packetPushedIn, packetPulledIn))"
attr title "incoming packet lengths"
attr unit b
vector 19 MinimalAttackNetwork.masterClock.ethernet.fcsInserter incomingDataRate:vector ETV
attr interpolationmode linear
attr recordingmode vector
attr source "throughput(merge(packetPushedIn, packetPulledIn))"
attr title "incoming data rate"
attr unit bps
vector 20 MinimalAttackNetwork.masterClock.ethernet.fcsInserter outgoingPacketLengths:vector ETV
attr interpolationmode none
attr recordingmode vector
attr source "packetLength(merge(packetPushedOut, packetPulledOut))"
attr title "outgoing packet lengths"
attr unit b
vector 21 MinimalAttackNetwork.masterClock.ethernet.fcsInserter outgoingDataRate:vector ETV
attr interpolationmode linear
attr recordingmode vector
attr source "throughput(merge(packetPushedOut, packetPulledOut))"
attr title "outgoing data rate"
attr unit bps
vector 22 MinimalAttackNetwork.masterClock.ethernet.fcsInserter flowIncomingPacketLengths:vector ETV
attr interpolationmode none
attr recordingmode vector
attr source "packetLength(demuxFlow(merge(packetPushedIn, packetPulledIn)))"
attr title "flow specific incoming packet lengths"
attr unit b
vector 23 MinimalAttackNetwork.masterClock.ethernet.fcsInserter flowIncomingDataRate:vector ETV
attr interpolationmode linear
attr recordingmode vector
attr source "throughput(demuxFlow(merge(packetPushedIn, packetPulledIn)))"
attr title "flow specific incoming data rate"
attr unit bps
vector 24 MinimalAttackNetwork.masterClock.ethernet.fcsInserter flowOutgoingPacketLengths:vector ETV
attr interpolationmode none
attr recordingmode vector
attr source "packetLength(demuxFlow(merge(packetPushedOut, packetPulledOut)))"
attr title "flow specific outgoing packet lengths"
attr unit b
vector 25 MinimalAttackNetwork.masterClock.ethernet.fcsInserter flowOutgoingDataRate:vector ETV
attr interpolationmode linear
attr recordingmode vector
attr source "throughput(demuxFlow(merge(packetPushedOut, packetPulledOut)))"
attr title "flow specific outgoing data rate"
attr unit bps
vector 26 MinimalAttackNetwork.masterClock.ethernet.macHeaderChecker incomingPacketLengths:vector ETV
attr interpolationmode none
attr recordingmode vector
attr source "packetLength(merge(packetPushedIn, packetPulledIn))"
attr title "incoming packet lengths"
attr unit b
vector 27 MinimalAttackNetwork.masterClock.ethernet.macHeaderChecker incomingDataRate:vector ETV
attr interpolationmode linear
attr recordingmode vector
attr source "throughput(merge(packetPushedIn, packetPulledIn))"
attr title "incoming data rate"
attr unit bps
vector 28 MinimalAttackNetwork.masterClock.ethernet.macHeaderChecker outgoingPacketLengths:vector ETV
attr interpolationmode none
attr recordingmode vector
attr source "packetLength(merge(packetPushedOut, packetPulledOut))"
attr title "outgoing packet lengths"
attr unit b
vector 29 MinimalAttackNetwork.masterClock.ethernet.macHeaderChecker outgoingDataRate:vector ETV
attr interpolationmode linear
attr recordingmode vector
attr source "throughput(merge(packetPushedOut, packetPulledOut))"
attr title "outgoing data rate"
attr unit bps
vector 30 MinimalAttackNetwork.masterClock.ethernet.macHeaderChecker droppedPacketLengths:vector ETV
attr interpolationmode none
attr recordingmode vector
attr source packetLength(packetDropped)
attr title "dropped packet lengths"
attr unit b
vector 31 MinimalAttackNetwork.masterClock.ethernet.macHeaderChecker droppedDataRate:vector ETV
attr interpolationmode linear
attr recordingmode vector
attr source throughput(packetDropped)
attr title "dropped data rate"
attr unit bps
vector 32 MinimalAttackNetwork.masterClock.ethernet.macHeaderChecker flowIncomingPacketLengths:vector ETV
attr interpolationmode none
attr recordingmode vector
attr source "packetLength(demuxFlow(merge(packetPushedIn, packetPulledIn)))"
attr title "flow specific incoming packet lengths"
attr unit b
vector 33 MinimalAttackNetwork.masterClock.ethernet.macHeaderChecker flowIncomingDataRate:vector ETV
attr interpolationmode linear
attr recordingmode vector
attr source "throughput(demuxFlow(merge(packetPushedIn, packetPulledIn)))"
attr title "flow specific incoming data rate"
attr unit bps
vector 34 MinimalAttackNetwork.masterClock.ethernet.macHeaderChecker flowOutgoingPacketLengths:vector ETV
attr interpolationmode none
attr recordingmode vector
attr source "packetLength(demuxFlow(merge(packetPushedOut, packetPulledOut)))"
attr title "flow specific outgoing packet lengths"
attr unit b
vector 35 MinimalAttackNetwork.masterClock.ethernet.macHeaderChecker flowOutgoingDataRate:vector ETV
attr interpolationmode linear
attr recordingmode vector
attr source "throughput(demuxFlow(merge(packetPushedOut, packetPulledOut)))"
attr title "flow specific outgoing data rate"
attr unit bps
vector 36 MinimalAttackNetwork.masterClock.ethernet.macHeaderChecker flowDroppedPacketLengths:vector ETV
attr interpolationmode none
attr recordingmode vector
attr source packetLength(demuxFlow(packetDropped))
attr title "flow specific dropped packet lengths"
attr unit b
vector 37 MinimalAttackNetwork.masterClock.ethernet.macHeaderChecker flowDroppedDataRate:vector ETV
attr interpolationmode linear
attr recordingmode vector
attr source throughput(demuxFlow(packetDropped))
attr title "flow specific dropped data rate"
attr unit bps
vector 38 MinimalAttackNetwork.masterClock.ethernet.fcsChecker incomingPacketLengths:vector ETV
attr interpolationmode none
attr recordingmode vector
attr source "packetLength(merge(packetPushedIn, packetPulledIn))"
attr title "incoming packet lengths"
attr unit b
vector 39 MinimalAttackNetwork.masterClock.ethernet.fcsChecker incomingDataRate:vector ETV
attr interpolationmode linear
attr recordingmode vector
attr source "throughput(merge(packetPushedIn, packetPulledIn))"
attr title "incoming data rate"
attr unit bps
vector 40 MinimalAttackNetwork.masterClock.ethernet.fcsChecker outgoingPacketLengths:vector ETV
attr interpolationmode none
attr recordingmode vector
attr source "packetLength(merge(packetPushedOut, packetPulledOut))"
attr title "outgoing packet lengths"
attr unit b
vector 41 MinimalAttackNetwork.masterClock.ethernet.fcsChecker outgoingDataRate:vector ETV
attr interpolationmode linear
attr recordingmode vector
attr source "throughput(merge(packetPushedOut, packetPulledOut))"
attr title "outgoing data rate"
attr unit bps
vector 42 MinimalAttackNetwork.masterClock.ethernet.fcsChecker droppedPacketLengths:vector ETV
attr interpolationmode none
attr recordingmode vector
attr source packetLength(packetDropped)
attr title "dropped packet lengths"
attr unit b
vector 43 MinimalAttackNetwork.masterClock.ethernet.fcsChecker droppedDataRate:vector ETV
attr interpolationmode linear
attr recordingmode vector
attr source throughput(packetDropped)
attr title "dropped data rate"
attr unit bps
vector 44 MinimalAttackNetwork.masterClock.ethernet.fcsChecker flowIncomingPacketLengths:vector ETV
attr interpolationmode none
attr recordingmode vector
attr source "packetLength(demuxFlow(merge(packetPushedIn, packetPulledIn)))"
attr title "flow specific incoming packet lengths"
attr unit b
vector 45 MinimalAttackNetwork.masterClock.ethernet.fcsChecker flowIncomingDataRate:vector ETV
attr interpolationmode linear
attr recordingmode vector
attr source "throughput(demuxFlow(merge(packetPushedIn, packetPulledIn)))"
attr title "flow specific incoming data rate"
attr unit bps
vector 46 MinimalAttackNetwork.masterClock.ethernet.fcsChecker flowOutgoingPacketLengths:vector ETV
attr interpolationmode none
attr recordingmode vector
attr source "packetLength(demuxFlow(merge(packetPushedOut, packetPulledOut)))"
attr title "flow specific outgoing packet lengths"
attr unit b
vector 47 MinimalAttackNetwork.masterClock.ethernet.fcsChecker flowOutgoingDataRate:vector ETV
attr interpolationmode linear
attr recordingmode vector
attr source "throughput(demuxFlow(merge(packetPushedOut, packetPulledOut)))"
attr title "flow specific outgoing data rate"
attr unit bps
vector 48 MinimalAttackNetwork.masterClock.ethernet.fcsChecker flowDroppedPacketLengths:vector ETV
attr interpolationmode none
attr recordingmode vector
attr source packetLength(demuxFlow(packetDropped))
attr title "flow specific dropped packet lengths"
attr unit b
vector 49 MinimalAttackNetwork.masterClock.ethernet.fcsChecker flowDroppedDataRate:vector ETV
attr interpolationmode linear
attr recordingmode vector
attr source throughput(demuxFlow(packetDropped))
attr title "flow specific dropped data rate"
attr unit bps
vector 50 MinimalAttackNetwork.masterClock.lo[0].lo rcvdPkFromHl:vector(packetBytes) ETV
attr interpolationmode none
attr recordingmode vector(packetBytes)
attr source packetReceivedFromUpper
attr title "packets received from higher layer, packetBytes"
vector 51 MinimalAttackNetwork.masterClock.lo[0].lo passedUpPk:vector(packetBytes) ETV
attr interpolationmode none
attr recordingmode vector(packetBytes)
attr source packetSentToUpper
attr title "packets passed to higher layer, packetBytes"
vector 52 MinimalAttackNetwork.masterClock.lo[0] packetDropInterfaceDown:vector(packetBytes) ETV
attr interpolationmode none
attr recordingmode vector(packetBytes)
attr source packetDropReasonIsInterfaceDown(packetDropped)
attr title "packet drops: interface down, packetBytes"
vector 53 MinimalAttackNetwork.masterClock.lo[0] packetDropNoCarrier:vector(packetBytes) ETV
attr interpolationmode none
attr recordingmode vector(packetBytes)
attr source packetDropReasonIsNoCarrier(packetDropped)
attr title "packet drops: no carrier, packetBytes"
vector 54 MinimalAttackNetwork.masterClock.eth[0].macLayer.queue queueLength:vector ETV
attr autoWarmupFilter false
attr interpolationmode sample-hold
attr recordingmode vector
attr source "warmup(atomic(constant0(packetPushEnded) + count(packetPushStarted) - count(packetPulled) - count(packetRemoved) - count(packetDropped)))"
attr title "queue length"
attr unit pk
vector 55 MinimalAttackNetwork.masterClock.eth[0].macLayer.queue queueBitLength:vector ETV
attr autoWarmupFilter false
attr interpolationmode sample-hold
attr recordingmode vector
attr source "warmup(atomic(constant0(packetPushEnded) + sum(packetLength(packetPushStarted)) - sum(packetLength(packetPulled)) - sum(packetLength(packetRemoved)) - sum(packetLength(packetDropped))))"
attr title "queue bit length"
attr unit b
vector 56 MinimalAttackNetwork.masterClock.eth[0].macLayer.queue queueingTime:vector ETV
attr interpolationmode none
attr recordingmode vector
attr source queueingTime(packetPulled)
attr title "queueing times"
attr unit s
vector 57 MinimalAttackNetwork.masterClock.eth[0].macLayer.queue incomingPacketLengths:vector ETV
attr interpolationmode none
attr recordingmode vector
attr source packetLength(packetPushStarted)
attr title "incoming packet lengths"
attr unit b
vector 58 MinimalAttackNetwork.masterClock.eth[0].macLayer.queue incomingDataRate:vector ETV
attr interpolationmode linear
attr recordingmode vector
attr source throughput(packetPushStarted)
attr title "incoming datarate"
attr unit bps
vector 59 MinimalAttackNetwork.masterClock.eth[0].macLayer.queue outgoingPacketLengths:vector ETV
attr interpolationmode none
attr recordingmode vector
attr source packetLength(packetPulled)
attr title "outgoing packet lengths"
attr unit b
vector 60 MinimalAttackNetwork.masterClock.eth[0].macLayer.queue outgoingDataRate:vector ETV
attr interpolationmode linear
attr recordingmode vector
attr source throughput(packetPulled)
attr title "outgoing datarate"
attr unit bps
vector 61 MinimalAttackNetwork.masterClock.eth[0].macLayer.queue droppedPacketLengthsQueueOverflow:vector ETV
attr interpolationmode none
attr recordingmode vector
attr source packetLength(packetDropReasonIsQueueOverflow(packetDropped))
attr title "dropped packet lengths: queue overflow"
attr unit b
vector 62 MinimalAttackNetwork.masterClock.eth[0].macLayer.queue flowQueueingTime:vector ETV
attr interpolationmode none
attr recordingmode vector
attr source queueingTime(demuxFlow(packetPulled))
attr title "flow queueing times"
attr unit s
vector 63 MinimalAttackNetwork.masterClock.eth[0].macLayer.queue flowIncomingDataRate:vector ETV
attr interpolationmode linear
attr recordingmode vector
attr source throughput(flowPacketLength(demuxFlow(packetPushStarted)))
attr title "flow specific incoming data rate"
attr unit bps
vector 64 MinimalAttackNetwork.masterClock.eth[0].macLayer.queue flowOutgoingDataRate:vector ETV
attr interpolationmode linear
attr recordingmode vector
attr source throughput(flowPacketLength(demuxFlow(packetPulled)))
attr title "flow specific outgoing data rate"
attr unit bps
vector 65 MinimalAttackNetwork.masterClock.eth[0].macLayer.server incomingPacketLengths:vector ETV
attr interpolationmode none
attr recordingmode vector
attr source packetLength(packetPulled)
attr title "incoming packet lengths"
attr unit b
vector 66 MinimalAttackNetwork.masterClock.eth[0].macLayer.server incomingDataRate:vector ETV
attr interpolationmode linear
attr recordingmode vector
attr source throughput(packetPulled)
attr title "incoming datarate"
attr unit bps
vector 67 MinimalAttackNetwork.masterClock.eth[0].macLayer.server outgoingPacketLengths:vector ETV
attr interpolationmode none
attr recordingmode vector
attr source packetLength(packetPushed)
attr title "outgoing packet lengths"
attr unit b
vector 68 MinimalAttackNetwork.masterClock.eth[0].macLayer.server outgoingDataRate:vector ETV
attr interpolationmode linear
attr recordingmode vector
attr source throughput(packetPushed)
attr title "outgoing datarate"
attr unit bps
vector 69 MinimalAttackNetwork.masterClock.eth[0].macLayer.outboundEmitter incomingPacketLengths:vector ETV
attr interpolationmode none
attr recordingmode vector
attr source "packetLength(merge(packetPushedIn, packetPulledIn))"
attr title "incoming packet lengths"
attr unit b
vector 70 MinimalAttackNetwork.masterClock.eth[0].macLayer.outboundEmitter incomingDataRate:vector ETV
attr interpolationmode linear
attr recordingmode vector
attr source "throughput(merge(packetPushedIn, packetPulledIn))"
attr title "incoming data rate"
attr unit bps
vector 71 MinimalAttackNetwork.masterClock.eth[0].macLayer.outboundEmitter outgoingPacketLengths:vector ETV
attr interpolationmode none
attr recordingmode vector
attr source "packetLength(merge(packetPushedOut, packetPulledOut))"
attr title "outgoing packet lengths"
attr unit b
vector 72 MinimalAttackNetwork.masterClock.eth[0].macLayer.outboundEmitter outgoingDataRate:vector ETV
attr interpolationmode linear
attr recordingmode vector
attr source "throughput(merge(packetPushedOut, packetPulledOut))"
attr title "outgoing data rate"
attr unit bps
vector 73 MinimalAttackNetwork.masterClock.eth[0].macLayer.outboundEmitter flowIncomingPacketLengths:vector ETV
attr interpolationmode none
attr recordingmode vector
attr source "packetLength(demuxFlow(merge(packetPushedIn, packetPulledIn)))"
attr title "flow specific incoming packet lengths"
attr unit b
vector 74 MinimalAttackNetwork.masterClock.eth[0].macLayer.outboundEmitter flowIncomingDataRate:vector ETV
attr interpolationmode linear
attr recordingmode vector
attr source "throughput(demuxFlow(merge(packetPushedIn, packetPulledIn)))"
attr title "flow specific incoming data rate"
attr unit bps
vector 75 MinimalAttackNetwork.masterClock.eth[0].macLayer.outboundEmitter flowOutgoingPacketLengths:vector ETV
attr interpolationmode none
attr recordingmode vector
attr source "packetLength(demuxFlow(merge(packetPushedOut, packetPulledOut)))"
attr title "flow specific outgoing packet lengths"
attr unit b
vector 76 MinimalAttackNetwork.masterClock.eth[0].macLayer.outboundEmitter flowOutgoingDataRate:vector ETV
attr interpolationmode linear
attr recordingmode vector
attr source "throughput(demuxFlow(merge(packetPushedOut, packetPulledOut)))"
attr title "flow specific outgoing data rate"
attr unit bps
vector 77 MinimalAttackNetwork.masterClock.eth[0].macLayer.fcsChecker incomingPacketLengths:vector ETV
attr interpolationmode none
attr recordingmode vector
attr source "packetLength(merge(packetPushedIn, packetPulledIn))"
attr title "incoming packet lengths"
attr unit b
vector 78 MinimalAttackNetwork.masterClock.eth[0].macLayer.fcsChecker incomingDataRate:vector ETV
attr interpolationmode linear
attr recordingmode vector
attr source "throughput(merge(packetPushedIn, packetPulledIn))"
attr title "incoming data rate"
attr unit bps
vector 79 MinimalAttackNetwork.masterClock.eth[0].macLayer.fcsChecker outgoingPacketLengths:vector ETV
attr interpolationmode none
attr recordingmode vector
attr source "packetLength(merge(packetPushedOut, packetPulledOut))"
attr title "outgoing packet lengths"
attr unit b
vector 80 MinimalAttackNetwork.masterClock.eth[0].macLayer.fcsChecker outgoingDataRate:vector ETV
attr interpolationmode linear
attr recordingmode vector
attr source "throughput(merge(packetPushedOut, packetPulledOut))"
attr title "outgoing data rate"
attr unit bps
vector 81 MinimalAttackNetwork.masterClock.eth[0].macLayer.fcsChecker droppedPacketLengths:vector ETV
attr interpolationmode none
attr recordingmode vector
attr source packetLength(packetDropped)
attr title "dropped packet lengths"
attr unit b
vector 82 MinimalAttackNetwork.masterClock.eth[0].macLayer.fcsChecker droppedDataRate:vector ETV
attr interpolationmode linear
attr recordingmode vector
attr source throughput(packetDropped)
attr title "dropped data rate"
attr unit bps
vector 83 MinimalAttackNetwork.masterClock.eth[0].macLayer.fcsChecker flowIncomingPacketLengths:vector ETV
attr interpolationmode none
attr recordingmode vector
attr source "packetLength(demuxFlow(merge(packetPushedIn, packetPulledIn)))"
attr title "flow specific incoming packet lengths"
attr unit b
vector 84 MinimalAttackNetwork.masterClock.eth[0].macLayer.fcsChecker flowIncomingDataRate:vector ETV
attr interpolationmode linear
attr recordingmode vector
attr source "throughput(demuxFlow(merge(packetPushedIn, packetPulledIn)))"
attr title "flow specific incoming data rate"
attr unit bps
vector 85 MinimalAttackNetwork.masterClock.eth[0].macLayer.fcsChecker flowOutgoingPacketLengths:vector ETV
attr interpolationmode none
attr recordingmode vector
attr source "packetLength(demuxFlow(merge(packetPushedOut, packetPulledOut)))"
attr title "flow specific outgoing packet lengths"
attr unit b
vector 86 MinimalAttackNetwork.masterClock.eth[0].macLayer.fcsChecker flowOutgoingDataRate:vector ETV
attr interpolationmode linear
attr recordingmode vector
attr source "throughput(demuxFlow(merge(packetPushedOut, packetPulledOut)))"
attr title "flow specific outgoing data rate"
attr unit bps
vector 87 MinimalAttackNetwork.masterClock.eth[0].macLayer.fcsChecker flowDroppedPacketLengths:vector ETV
attr interpolationmode none
attr recordingmode vector
attr source packetLength(demuxFlow(packetDropped))
attr title "flow specific dropped packet lengths"
attr unit b
vector 88 MinimalAttackNetwork.masterClock.eth[0].macLayer.fcsChecker flowDroppedDataRate:vector ETV
attr interpolationmode linear
attr recordingmode vector
attr source throughput(demuxFlow(packetDropped))
attr title "flow specific dropped data rate"
attr unit bps
vector 89 MinimalAttackNetwork.masterClock.eth[0].macLayer.inboundEmitter incomingPacketLengths:vector ETV
attr interpolationmode none
attr recordingmode vector
attr source "packetLength(merge(packetPushedIn, packetPulledIn))"
attr title "incoming packet lengths"
attr unit b
vector 90 MinimalAttackNetwork.masterClock.eth[0].macLayer.inboundEmitter incomingDataRate:vector ETV
attr interpolationmode linear
attr recordingmode vector
attr source "throughput(merge(packetPushedIn, packetPulledIn))"
attr title "incoming data rate"
attr unit bps
vector 91 MinimalAttackNetwork.masterClock.eth[0].macLayer.inboundEmitter outgoingPacketLengths:vector ETV
attr interpolationmode none
attr recordingmode vector
attr source "packetLength(merge(packetPushedOut, packetPulledOut))"
attr title "outgoing packet lengths"
attr unit b
vector 92 MinimalAttackNetwork.masterClock.eth[0].macLayer.inboundEmitter outgoingDataRate:vector ETV
attr interpolationmode linear
attr recordingmode vector
attr source "throughput(merge(packetPushedOut, packetPulledOut))"
attr title "outgoing data rate"
attr unit bps
vector 93 MinimalAttackNetwork.masterClock.eth[0].macLayer.inboundEmitter flowIncomingPacketLengths:vector ETV
attr interpolationmode none
attr recordingmode vector
attr source "packetLength(demuxFlow(merge(packetPushedIn, packetPulledIn)))"
attr title "flow specific incoming packet lengths"
attr unit b
vector 94 MinimalAttackNetwork.masterClock.eth[0].macLayer.inboundEmitter flowIncomingDataRate:vector ETV
attr interpolationmode linear
attr recordingmode vector
attr source "throughput(demuxFlow(merge(packetPushedIn, packetPulledIn)))"
attr title "flow specific incoming data rate"
attr unit bps
vector 95 MinimalAttackNetwork.masterClock.eth[0].macLayer.inboundEmitter flowOutgoingPacketLengths:vector ETV
attr interpolationmode none
attr recordingmode vector
attr source "packetLength(demuxFlow(merge(packetPushedOut, packetPulledOut)))"
attr title "flow specific outgoing packet lengths"
attr unit b
vector 96 MinimalAttackNetwork.masterClock.eth[0].macLayer.inboundEmitter flowOutgoingDataRate:vector ETV
attr interpolationmode linear
attr recordingmode vector
attr source "throughput(demuxFlow(merge(packetPushedOut, packetPulledOut)))"
attr title "flow specific outgoing data rate"
attr unit bps
vector 97 MinimalAttackNetwork.masterClock.eth[0].phyLayer.phyHeaderInserter incomingPacketLengths:vector ETV
attr interpolationmode none
attr recordingmode vector
attr source "packetLength(merge(packetPushedIn, packetPulledIn))"
attr title "incoming packet lengths"
attr unit b
vector 98 MinimalAttackNetwork.masterClock.eth[0].phyLayer.phyHeaderInserter incomingDataRate:vector ETV
attr interpolationmode linear
attr recordingmode vector
attr source "throughput(merge(packetPushedIn, packetPulledIn))"
attr title "incoming data rate"
attr unit bps
vector 99 MinimalAttackNetwork.masterClock.eth[0].phyLayer.phyHeaderInserter outgoingPacketLengths:vector ETV
attr interpolationmode none
attr recordingmode vector
attr source "packetLength(merge(packetPushedOut, packetPulledOut))"
attr title "outgoing packet lengths"
attr unit b
vector 100 MinimalAttackNetwork.masterClock.eth[0].phyLayer.phyHeaderInserter outgoingDataRate:vector ETV
attr interpolationmode linear
attr recordingmode vector
attr source "throughput(merge(packetPushedOut, packetPulledOut))"
attr title "outgoing data rate"
attr unit bps
vector 101 MinimalAttackNetwork.masterClock.eth[0].phyLayer.phyHeaderInserter flowIncomingPacketLengths:vector ETV
attr interpolationmode none
attr recordingmode vector
attr source "packetLength(demuxFlow(merge(packetPushedIn, packetPulledIn)))"
attr title "flow specific incoming packet lengths"
attr unit b
vector 102 MinimalAttackNetwork.masterClock.eth[0].phyLayer.phyHeaderInserter flowIncomingDataRate:vector ETV
attr interpolationmode linear
attr recordingmode vector
attr source "throughput(demuxFlow(merge(packetPushedIn, packetPulledIn)))"
attr title "flow specific incoming data rate"
attr unit bps
vector 103 MinimalAttackNetwork.masterClock.eth[0].phyLayer.phyHeaderInserter flowOutgoingPacketLengths:vector ETV
attr interpolationmode none
attr recordingmode vector
attr source "packetLength(demuxFlow(merge(packetPushedOut, packetPulledOut)))"
attr title "flow specific outgoing packet lengths"
attr unit b
vector 104 MinimalAttackNetwork.masterClock.eth[0].phyLayer.phyHeaderInserter flowOutgoingDataRate:vector ETV
attr interpolationmode linear
attr recordingmode vector
attr source "throughput(demuxFlow(merge(packetPushedOut, packetPulledOut)))"
attr title "flow specific outgoing data rate"
attr unit bps
vector 105 MinimalAttackNetwork.masterClock.eth[0].phyLayer.interFrameGapInserter interpacketGap:vector ETV
attr interpolationmode sample-hold
attr recordingmode vector
attr source "count(interpacketGapStarted) - count(interpacketGapEnded)"
attr title "interpacket gap state"
attr type int
vector 106 MinimalAttackNetwork.masterClock.eth[0].phyLayer.outboundEmitter incomingPacketLengths:vector ETV
attr interpolationmode none
attr recordingmode vector
attr source "packetLength(merge(packetPushedIn, packetPulledIn))"
attr title "incoming packet lengths"
attr unit b
vector 107 MinimalAttackNetwork.masterClock.eth[0].phyLayer.outboundEmitter incomingDataRate:vector ETV
attr interpolationmode linear
attr recordingmode vector
attr source "throughput(merge(packetPushedIn, packetPulledIn))"
attr title "incoming data rate"
attr unit bps
vector 108 MinimalAttackNetwork.masterClock.eth[0].phyLayer.outboundEmitter outgoingPacketLengths:vector ETV
attr interpolationmode none
attr recordingmode vector
attr source "packetLength(merge(packetPushedOut, packetPulledOut))"
attr title "outgoing packet lengths"
attr unit b
vector 109 MinimalAttackNetwork.masterClock.eth[0].phyLayer.outboundEmitter outgoingDataRate:vector ETV
attr interpolationmode linear
attr recordingmode vector
attr source "throughput(merge(packetPushedOut, packetPulledOut))"
attr title "outgoing data rate"
attr unit bps
vector 110 MinimalAttackNetwork.masterClock.eth[0].phyLayer.outboundEmitter flowIncomingPacketLengths:vector ETV
attr interpolationmode none
attr recordingmode vector
attr source "packetLength(demuxFlow(merge(packetPushedIn, packetPulledIn)))"
attr title "flow specific incoming packet lengths"
attr unit b
vector 111 MinimalAttackNetwork.masterClock.eth[0].phyLayer.outboundEmitter flowIncomingDataRate:vector ETV
attr interpolationmode linear
attr recordingmode vector
attr source "throughput(demuxFlow(merge(packetPushedIn, packetPulledIn)))"
attr title "flow specific incoming data rate"
attr unit bps
vector 112 MinimalAttackNetwork.masterClock.eth[0].phyLayer.outboundEmitter flowOutgoingPacketLengths:vector ETV
attr interpolationmode none
attr recordingmode vector
attr source "packetLength(demuxFlow(merge(packetPushedOut, packetPulledOut)))"
attr title "flow specific outgoing packet lengths"
attr unit b
vector 113 MinimalAttackNetwork.masterClock.eth[0].phyLayer.outboundEmitter flowOutgoingDataRate:vector ETV
attr interpolationmode linear
attr recordingmode vector
attr source "throughput(demuxFlow(merge(packetPushedOut, packetPulledOut)))"
attr title "flow specific outgoing data rate"
attr unit bps
vector 114 MinimalAttackNetwork.masterClock.eth[0].phyLayer.transmitter transmitting:vector ETV
attr interpolationmode sample-hold
attr recordingmode vector
attr source "count(transmissionStarted) - count(transmissionEnded)"
attr title "transmitting state"
attr type int
vector 115 MinimalAttackNetwork.masterClock.eth[0].phyLayer.transmitter throughput:vector ETV
attr interpolationmode linear
attr recordingmode vector
attr source throughput(transmissionEnded)
attr title throughput
attr unit bps
vector 116 MinimalAttackNetwork.masterClock.eth[0].phyLayer.transmitter utilization:vector ETV
attr interpolationmode linear
attr recordingmode vector
attr source "100 * utilization(count(transmissionStarted) - count(transmissionEnded))"
attr title utilization
attr unit %
vector 117 MinimalAttackNetwork.masterClock.eth[0].phyLayer.transmitter transmissionTime:vector ETV
attr interpolationmode none
attr recordingmode vector
attr source packetDuration(transmissionEnded)
attr title "transmission time"
attr unit s
vector 118 MinimalAttackNetwork.masterClock.eth[0].phyLayer.transmitter flowTransmissionTime:vector ETV
attr interpolationmode none
attr recordingmode vector
attr source packetDuration(demuxFlow(transmissionEnded))
attr title "flow transmission time"
attr unit s
vector 119 MinimalAttackNetwork.masterClock.eth[0].phyLayer.phyHeaderChecker incomingPacketLengths:vector ETV
attr interpolationmode none
attr recordingmode vector
attr source "packetLength(merge(packetPushedIn, packetPulledIn))"
attr title "incoming packet lengths"
attr unit b
vector 120 MinimalAttackNetwork.masterClock.eth[0].phyLayer.phyHeaderChecker incomingDataRate:vector ETV
attr interpolationmode linear
attr recordingmode vector
attr source "throughput(merge(packetPushedIn, packetPulledIn))"
attr title "incoming data rate"
attr unit bps
vector 121 MinimalAttackNetwork.masterClock.eth[0].phyLayer.phyHeaderChecker outgoingPacketLengths:vector ETV
attr interpolationmode none
attr recordingmode vector
attr source "packetLength(merge(packetPushedOut, packetPulledOut))"
attr title "outgoing packet lengths"
attr unit b
vector 122 MinimalAttackNetwork.masterClock.eth[0].phyLayer.phyHeaderChecker outgoingDataRate:vector ETV
attr interpolationmode linear
attr recordingmode vector
attr source "throughput(merge(packetPushedOut, packetPulledOut))"
attr title "outgoing data rate"
attr unit bps
vector 123 MinimalAttackNetwork.masterClock.eth[0].phyLayer.phyHeaderChecker droppedPacketLengths:vector ETV
attr interpolationmode none
attr recordingmode vector
attr source packetLength(packetDropped)
attr title "dropped packet lengths"
attr unit b
vector 124 MinimalAttackNetwork.masterClock.eth[0].phyLayer.phyHeaderChecker droppedDataRate:vector ETV
attr interpolationmode linear
attr recordingmode vector
attr source throughput(packetDropped)
attr title "dropped data rate"
attr unit bps
vector 125 MinimalAttackNetwork.masterClock.eth[0].phyLayer.phyHeaderChecker flowIncomingPacketLengths:vector ETV
attr interpolationmode none
attr recordingmode vector
attr source "packetLength(demuxFlow(merge(packetPushedIn, packetPulledIn)))"
attr title "flow specific incoming packet lengths"
attr unit b
vector 126 MinimalAttackNetwork.masterClock.eth[0].phyLayer.phyHeaderChecker flowIncomingDataRate:vector ETV
attr interpolationmode linear
attr recordingmode vector
attr source "throughput(demuxFlow(merge(packetPushedIn, packetPulledIn)))"
attr title "flow specific incoming data rate"
attr unit bps
vector 127 MinimalAttackNetwork.masterClock.eth[0].phyLayer.phyHeaderChecker flowOutgoingPacketLengths:vector ETV
attr interpolationmode none
attr recordingmode vector
attr source "packetLength(demuxFlow(merge(packetPushedOut, packetPulledOut)))"
attr title "flow specific outgoing packet lengths"
attr unit b
vector 128 MinimalAttackNetwork.masterClock.eth[0].phyLayer.phyHeaderChecker flowOutgoingDataRate:vector ETV
attr interpolationmode linear
attr recordingmode vector
attr source "throughput(demuxFlow(merge(packetPushedOut, packetPulledOut)))"
attr title "flow specific outgoing data rate"
attr unit bps
vector 129 MinimalAttackNetwork.masterClock.eth[0].phyLayer.phyHeaderChecker flowDroppedPacketLengths:vector ETV
attr interpolationmode none
attr recordingmode vector
attr source packetLength(demuxFlow(packetDropped))
attr title "flow specific dropped packet lengths"
attr unit b
vector 130 MinimalAttackNetwork.masterClock.eth[0].phyLayer.phyHeaderChecker flowDroppedDataRate:vector ETV
attr interpolationmode linear
attr recordingmode vector
attr source throughput(demuxFlow(packetDropped))
attr title "flow specific dropped data rate"
attr unit bps
vector 131 MinimalAttackNetwork.masterClock.eth[0].phyLayer.inboundEmitter incomingPacketLengths:vector ETV
attr interpolationmode none
attr recordingmode vector
attr source "packetLength(merge(packetPushedIn, packetPulledIn))"
attr title "incoming packet lengths"
attr unit b
vector 132 MinimalAttackNetwork.masterClock.eth[0].phyLayer.inboundEmitter incomingDataRate:vector ETV
attr interpolationmode linear
attr recordingmode vector
attr source "throughput(merge(packetPushedIn, packetPulledIn))"
attr title "incoming data rate"
attr unit bps
vector 133 MinimalAttackNetwork.masterClock.eth[0].phyLayer.inboundEmitter outgoingPacketLengths:vector ETV
attr interpolationmode none
attr recordingmode vector
attr source "packetLength(merge(packetPushedOut, packetPulledOut))"
attr title "outgoing packet lengths"
attr unit b
vector 134 MinimalAttackNetwork.masterClock.eth[0].phyLayer.inboundEmitter outgoingDataRate:vector ETV
attr interpolationmode linear
attr recordingmode vector
attr source "throughput(merge(packetPushedOut, packetPulledOut))"
attr title "outgoing data rate"
attr unit bps
vector 135 MinimalAttackNetwork.masterClock.eth[0].phyLayer.inboundEmitter flowIncomingPacketLengths:vector ETV
attr interpolationmode none
attr recordingmode vector
attr source "packetLength(demuxFlow(merge(packetPushedIn, packetPulledIn)))"
attr title "flow specific incoming packet lengths"
attr unit b
vector 136 MinimalAttackNetwork.masterClock.eth[0].phyLayer.inboundEmitter flowIncomingDataRate:vector ETV
attr interpolationmode linear
attr recordingmode vector
attr source "throughput(demuxFlow(merge(packetPushedIn, packetPulledIn)))"
attr title "flow specific incoming data rate"
attr unit bps
vector 137 MinimalAttackNetwork.masterClock.eth[0].phyLayer.inboundEmitter flowOutgoingPacketLengths:vector ETV
attr interpolationmode none
attr recordingmode vector
attr source "packetLength(demuxFlow(merge(packetPushedOut, packetPulledOut)))"
attr title "flow specific outgoing packet lengths"
attr unit b
vector 138 MinimalAttackNetwork.masterClock.eth[0].phyLayer.inboundEmitter flowOutgoingDataRate:vector ETV
attr interpolationmode linear
attr recordingmode vector
attr source "throughput(demuxFlow(merge(packetPushedOut, packetPulledOut)))"
attr title "flow specific outgoing data rate"
attr unit bps
vector 139 MinimalAttackNetwork.masterClock.eth[0].phyLayer.receiver throughput:vector ETV
attr interpolationmode linear
attr recordingmode vector
attr source throughput(receptionEnded)
attr title throughput
attr unit bps
vector 140 MinimalAttackNetwork.masterClock.eth[0].phyLayer.receiver receptionTime:vector ETV
attr interpolationmode none
attr recordingmode vector
attr source packetDuration(receptionEnded)
attr title "reception time"
attr unit s
vector 141 MinimalAttackNetwork.masterClock.eth[0].phyLayer.receiver flowReceptionTime:vector ETV
attr interpolationmode none
attr recordingmode vector
attr source packetDuration(demuxFlow(receptionEnded))
attr title "flow reception time"
attr unit s
vector 142 MinimalAttackNetwork.masterClock.eth[0] packetDropInterfaceDown:vector(packetBytes) ETV
attr interpolationmode none
attr recordingmode vector(packetBytes)
attr source packetDropReasonIsInterfaceDown(packetDropped)
attr title "packet drops: interface down, packetBytes"
vector 143 MinimalAttackNetwork.masterClock.eth[0] packetDropNoCarrier:vector(packetBytes) ETV
attr interpolationmode none
attr recordingmode vector(packetBytes)
attr source packetDropReasonIsNoCarrier(packetDropped)
attr title "packet drops: no carrier, packetBytes"
vector 144 MinimalAttackNetwork.masterClock.ipv4.ip packetDropAddressResolutionFailed:vector(packetBytes) ETV
attr interpolationmode none
attr recordingmode vector(packetBytes)
attr source packetDropReasonIsAddressResolutionFailed(packetDropped)
attr title "packet drop: address resolution failed, packetBytes"
vector 145 MinimalAttackNetwork.masterClock.ipv4.ip packetDropHopLimitReached:vector(packetBytes) ETV
attr interpolationmode none
attr recordingmode vector(packetBytes)
attr source packetDropReasonIsHopLimitReached(packetDropped)
attr title "packet drop: hop limit reached, packetBytes"
vector 146 MinimalAttackNetwork.masterClock.ipv4.ip packetDropForwardingDisabled:vector(packetBytes) ETV
attr interpolationmode none
attr recordingmode vector(packetBytes)
attr source packetDropReasonIsForwardingDisabled(packetDropped)
attr title "packet drop: forwarding disabled, packetBytes"
vector 147 MinimalAttackNetwork.masterClock.ipv4.ip packetDropNoInterfaceFound:vector(packetBytes) ETV
attr interpolationmode none
attr recordingmode vector(packetBytes)
attr source packetDropReasonIsNoInterfaceFound(packetDropped)
attr title "packet drop: no interface found, packetBytes"
vector 148 MinimalAttackNetwork.masterClock.ipv4.ip packetDropNoRouteFound:vector(packetBytes) ETV
attr interpolationmode none
attr recordingmode vector(packetBytes)
attr source packetDropReasonIsNoRouteFound(packetDropped)
attr title "packet drop: no route found, packetBytes"
vector 149 MinimalAttackNetwork.masterClock.ipv4.ip packetDropUndefined:vector(packetBytes) ETV
attr interpolationmode none
attr recordingmode vector(packetBytes)
attr source packetDropReasonIsUndefined(packetDropped)
attr title "packet drop: undefined, packetBytes"
vector 150 MinimalAttackNetwork.masterClock.udp packetSent:vector(packetBytes) ETV
attr interpolationmode none
attr recordingmode vector(packetBytes)
attr source packetSent
attr title "packets sent, packetBytes"
vector 151 MinimalAttackNetwork.masterClock.udp packetReceived:vector(packetBytes) ETV
attr interpolationmode none
attr recordingmode vector(packetBytes)
attr source packetReceived
attr title "packets received, packetBytes"
vector 152 MinimalAttackNetwork.masterClock.udp passedUpPk:vector(count) ETV
attr interpolationmode none
attr recordingmode vector(count)
attr source packetSentToUpper
attr title "packets passed up, count"
vector 153 MinimalAttackNetwork.masterClock.udp droppedPkWrongPort:vector(count) ETV
attr interpolationmode none
attr recordingmode vector(count)
attr source packetDropReasonIsNoPortFound(packetDropped)
attr title "packets dropped (wrong port), count"
vector 154 MinimalAttackNetwork.masterClock.udp droppedPkBadChecksum:vector(count) ETV
attr interpolationmode none
attr recordingmode vector(count)
attr source packetDropReasonIsIncorrectlyReceived(packetDropped)
attr title "packets dropped (checksum error), count"
vector 155 MinimalAttackNetwork.masterClock.gptp localTime:vector ETV
attr interpolationmode linear
attr recordingmode vector
vector 156 MinimalAttackNetwork.masterClock.gptp timeDifference:vector ETV
attr interpolationmode linear
attr recordingmode vector
vector 157 MinimalAttackNetwork.masterClock.gptp rateRatio:vector ETV
attr interpolationmode sample-hold
attr recordingmode vector
vector 158 MinimalAttackNetwork.masterClock.gptp peerDelay:vector ETV
attr interpolationmode sample-hold
attr recordingmode vector
vector 159 MinimalAttackNetwork.masterClock.gptp packetDropNotAddressedToUs:vector(packetBytes) ETV
attr interpolationmode none
attr recordingmode vector(packetBytes)
attr source packetDropReasonIsNotAddressedToUs(packetDropped)
attr title "packet drop: not addressed to us, packetBytes"
vector 160 MinimalAttackNetwork.centralSwitch.clock.oscillator driftRateChanged:vector ETV
attr interpolationmode sample-hold
attr recordingmode vector
attr title "Oscillator drift rate"
attr unit ppm
vector 161 MinimalAttackNetwork.centralSwitch.clock timeChanged:vector ETV
attr interpolationmode linear
attr recordingmode vector
attr title "Clock time"
vector 162 MinimalAttackNetwork.centralSwitch.gptp localTime:vector ETV
attr interpolationmode linear
attr recordingmode vector
vector 163 MinimalAttackNetwork.centralSwitch.gptp timeDifference:vector ETV
attr interpolationmode linear
attr recordingmode vector
vector 164 MinimalAttackNetwork.centralSwitch.gptp rateRatio:vector ETV
attr interpolationmode sample-hold
attr recordingmode vector
vector 165 MinimalAttackNetwork.centralSwitch.gptp peerDelay:vector ETV
attr interpolationmode sample-hold
attr recordingmode vector
vector 166 MinimalAttackNetwork.centralSwitch.gptp packetDropNotAddressedToUs:vector(packetBytes) ETV
attr interpolationmode none
attr recordingmode vector(packetBytes)
attr source packetDropReasonIsNotAddressedToUs(packetDropped)
attr title "packet drop: not addressed to us, packetBytes"
vector 167 MinimalAttackNetwork.centralSwitch.bridging.directionReverser.reverser incomingPacketLengths:vector ETV
attr interpolationmode none
attr recordingmode vector
attr source "packetLength(merge(packetPushedIn, packetPulledIn))"
attr title "incoming packet lengths"
attr unit b
vector 168 MinimalAttackNetwork.centralSwitch.bridging.directionReverser.reverser incomingDataRate:vector ETV
attr interpolationmode linear
attr recordingmode vector
attr source "throughput(merge(packetPushedIn, packetPulledIn))"
attr title "incoming data rate"
attr unit bps
vector 169 MinimalAttackNetwork.centralSwitch.bridging.directionReverser.reverser outgoingPacketLengths:vector ETV
attr interpolationmode none
attr recordingmode vector
attr source "packetLength(merge(packetPushedOut, packetPulledOut))"
attr title "outgoing packet lengths"
attr unit b
vector 170 MinimalAttackNetwork.centralSwitch.bridging.directionReverser.reverser outgoingDataRate:vector ETV
attr interpolationmode linear
attr recordingmode vector
attr source "throughput(merge(packetPushedOut, packetPulledOut))"
attr title "outgoing data rate"
attr unit bps
vector 171 MinimalAttackNetwork.centralSwitch.bridging.directionReverser.reverser flowIncomingPacketLengths:vector ETV
attr interpolationmode none
attr recordingmode vector
attr source "packetLength(demuxFlow(merge(packetPushedIn, packetPulledIn)))"
attr title "flow specific incoming packet lengths"
attr unit b
vector 172 MinimalAttackNetwork.centralSwitch.bridging.directionReverser.reverser flowIncomingDataRate:vector ETV
attr interpolationmode linear
attr recordingmode vector
attr source "throughput(demuxFlow(merge(packetPushedIn, packetPulledIn)))"
attr title "flow specific incoming data rate"
attr unit bps
vector 173 MinimalAttackNetwork.centralSwitch.bridging.directionReverser.reverser flowOutgoingPacketLengths:vector ETV
attr interpolationmode none
attr recordingmode vector
attr source "packetLength(demuxFlow(merge(packetPushedOut, packetPulledOut)))"
attr title "flow specific outgoing packet lengths"
attr unit b
vector 174 MinimalAttackNetwork.centralSwitch.bridging.directionReverser.reverser flowOutgoingDataRate:vector ETV
attr interpolationmode linear
attr recordingmode vector
attr source "throughput(demuxFlow(merge(packetPushedOut, packetPulledOut)))"
attr title "flow specific outgoing data rate"
attr unit bps
vector 175 MinimalAttackNetwork.centralSwitch.bridging.directionReverser.join packetLengths:vector ETV
attr interpolationmode none
attr recordingmode vector
attr source "packetLength(merge(packetPushed, packetPulled))"
attr title "packet lengths"
attr unit b
vector 176 MinimalAttackNetwork.centralSwitch.bridging.directionReverser.join dataRate:vector ETV
attr interpolationmode linear
attr recordingmode vector
attr source "throughput(merge(packetPushed, packetPulled))"
attr title "data rate"
attr unit bps
vector 177 MinimalAttackNetwork.centralSwitch.bridging.streamIdentifier.identifier incomingPacketLengths:vector ETV
attr interpolationmode none
attr recordingmode vector
attr source "packetLength(merge(packetPushedIn, packetPulledIn))"
attr title "incoming packet lengths"
attr unit b
vector 178 MinimalAttackNetwork.centralSwitch.bridging.streamIdentifier.identifier incomingDataRate:vector ETV
attr interpolationmode linear
attr recordingmode vector
attr source "throughput(merge(packetPushedIn, packetPulledIn))"
attr title "incoming data rate"
attr unit bps
vector 179 MinimalAttackNetwork.centralSwitch.bridging.streamIdentifier.identifier outgoingPacketLengths:vector ETV
attr interpolationmode none
attr recordingmode vector
attr source "packetLength(merge(packetPushedOut, packetPulledOut))"
attr title "outgoing packet lengths"
attr unit b
vector 180 MinimalAttackNetwork.centralSwitch.bridging.streamIdentifier.identifier outgoingDataRate:vector ETV
attr interpolationmode linear
attr recordingmode vector
attr source "throughput(merge(packetPushedOut, packetPulledOut))"
attr title "outgoing data rate"
attr unit bps
vector 181 MinimalAttackNetwork.centralSwitch.bridging.streamIdentifier.identifier flowIncomingPacketLengths:vector ETV
attr interpolationmode none
attr recordingmode vector
attr source "packetLength(demuxFlow(merge(packetPushedIn, packetPulledIn)))"
attr title "flow specific incoming packet lengths"
attr unit b
vector 182 MinimalAttackNetwork.centralSwitch.bridging.streamIdentifier.identifier flowIncomingDataRate:vector ETV
attr interpolationmode linear
attr recordingmode vector
attr source "throughput(demuxFlow(merge(packetPushedIn, packetPulledIn)))"
attr title "flow specific incoming data rate"
attr unit bps
vector 183 MinimalAttackNetwork.centralSwitch.bridging.streamIdentifier.identifier flowOutgoingPacketLengths:vector ETV
attr interpolationmode none
attr recordingmode vector
attr source "packetLength(demuxFlow(merge(packetPushedOut, packetPulledOut)))"
attr title "flow specific outgoing packet lengths"
attr unit b
vector 184 MinimalAttackNetwork.centralSwitch.bridging.streamIdentifier.identifier flowOutgoingDataRate:vector ETV
attr interpolationmode linear
attr recordingmode vector
attr source "throughput(demuxFlow(merge(packetPushedOut, packetPulledOut)))"
attr title "flow specific outgoing data rate"
attr unit bps
vector 185 MinimalAttackNetwork.centralSwitch.bridging.streamFilter.ingress.classifier packetLengths:vector ETV
attr interpolationmode none
attr recordingmode vector
attr source packetLength(packetPushed)
attr title "packet lengths"
attr unit b
vector 186 MinimalAttackNetwork.centralSwitch.bridging.streamFilter.ingress.classifier dataRate:vector ETV
attr interpolationmode linear
attr recordingmode vector
attr source throughput(packetPushed)
attr title "data rate"
attr unit bps
vector 187 MinimalAttackNetwork.centralSwitch.bridging.streamFilter.ingress.gate[0] incomingPacketLengths:vector ETV
attr interpolationmode none
attr recordingmode vector
attr source "packetLength(merge(packetPushedIn, packetPulledIn))"
attr title "incoming packet lengths"
attr unit b
vector 188 MinimalAttackNetwork.centralSwitch.bridging.streamFilter.ingress.gate[0] incomingDataRate:vector ETV
attr interpolationmode linear
attr recordingmode vector
attr source "throughput(merge(packetPushedIn, packetPulledIn))"
attr title "incoming data rate"
attr unit bps
vector 189 MinimalAttackNetwork.centralSwitch.bridging.streamFilter.ingress.gate[0] outgoingPacketLengths:vector ETV
attr interpolationmode none
attr recordingmode vector
attr source "packetLength(merge(packetPushedOut, packetPulledOut))"
attr title "outgoing packet lengths"
attr unit b
vector 190 MinimalAttackNetwork.centralSwitch.bridging.streamFilter.ingress.gate[0] outgoingDataRate:vector ETV
attr interpolationmode linear
attr recordingmode vector
attr source "throughput(merge(packetPushedOut, packetPulledOut))"
attr title "outgoing data rate"
attr unit bps
vector 191 MinimalAttackNetwork.centralSwitch.bridging.streamFilter.ingress.gate[0] flowIncomingPacketLengths:vector ETV
attr interpolationmode none
attr recordingmode vector
attr source "packetLength(demuxFlow(merge(packetPushedIn, packetPulledIn)))"
attr title "flow specific incoming packet lengths"
attr unit b
vector 192 MinimalAttackNetwork.centralSwitch.bridging.streamFilter.ingress.gate[0] flowIncomingDataRate:vector ETV
attr interpolationmode linear
attr recordingmode vector
attr source "throughput(demuxFlow(merge(packetPushedIn, packetPulledIn)))"
attr title "flow specific incoming data rate"
attr unit bps
vector 193 MinimalAttackNetwork.centralSwitch.bridging.streamFilter.ingress.gate[0] flowOutgoingPacketLengths:vector ETV
attr interpolationmode none
attr recordingmode vector
attr source "packetLength(demuxFlow(merge(packetPushedOut, packetPulledOut)))"
attr title "flow specific outgoing packet lengths"
attr unit b
vector 194 MinimalAttackNetwork.centralSwitch.bridging.streamFilter.ingress.gate[0] flowOutgoingDataRate:vector ETV
attr interpolationmode linear
attr recordingmode vector
attr source "throughput(demuxFlow(merge(packetPushedOut, packetPulledOut)))"
attr title "flow specific outgoing data rate"
attr unit bps
vector 195 MinimalAttackNetwork.centralSwitch.bridging.streamFilter.ingress.gate[0] gateState:vector ETV
attr enum CLOSED,OPEN
attr interpolationmode sample-hold
attr recordingmode vector
attr source gateStateChanged
attr title "gate state"
attr type enum
vector 196 MinimalAttackNetwork.centralSwitch.bridging.streamFilter.ingress.gate[1] incomingPacketLengths:vector ETV
attr interpolationmode none
attr recordingmode vector
attr source "packetLength(merge(packetPushedIn, packetPulledIn))"
attr title "incoming packet lengths"
attr unit b
vector 197 MinimalAttackNetwork.centralSwitch.bridging.streamFilter.ingress.gate[1] incomingDataRate:vector ETV
attr interpolationmode linear
attr recordingmode vector
attr source "throughput(merge(packetPushedIn, packetPulledIn))"
attr title "incoming data rate"
attr unit bps
vector 198 MinimalAttackNetwork.centralSwitch.bridging.streamFilter.ingress.gate[1] outgoingPacketLengths:vector ETV
attr interpolationmode none
attr recordingmode vector
attr source "packetLength(merge(packetPushedOut, packetPulledOut))"
attr title "outgoing packet lengths"
attr unit b
vector 199 MinimalAttackNetwork.centralSwitch.bridging.streamFilter.ingress.gate[1] outgoingDataRate:vector ETV
attr interpolationmode linear
attr recordingmode vector
attr source "throughput(merge(packetPushedOut, packetPulledOut))"
attr title "outgoing data rate"
attr unit bps
vector 200 MinimalAttackNetwork.centralSwitch.bridging.streamFilter.ingress.gate[1] flowIncomingPacketLengths:vector ETV
attr interpolationmode none
attr recordingmode vector
attr source "packetLength(demuxFlow(merge(packetPushedIn, packetPulledIn)))"
attr title "flow specific incoming packet lengths"
attr unit b
vector 201 MinimalAttackNetwork.centralSwitch.bridging.streamFilter.ingress.gate[1] flowIncomingDataRate:vector ETV
attr interpolationmode linear
attr recordingmode vector
attr source "throughput(demuxFlow(merge(packetPushedIn, packetPulledIn)))"
attr title "flow specific incoming data rate"
attr unit bps
vector 202 MinimalAttackNetwork.centralSwitch.bridging.streamFilter.ingress.gate[1] flowOutgoingPacketLengths:vector ETV
attr interpolationmode none
attr recordingmode vector
attr source "packetLength(demuxFlow(merge(packetPushedOut, packetPulledOut)))"
attr title "flow specific outgoing packet lengths"
attr unit b
vector 203 MinimalAttackNetwork.centralSwitch.bridging.streamFilter.ingress.gate[1] flowOutgoingDataRate:vector ETV
attr interpolationmode linear
attr recordingmode vector
attr source "throughput(demuxFlow(merge(packetPushedOut, packetPulledOut)))"
attr title "flow specific outgoing data rate"
attr unit bps
vector 204 MinimalAttackNetwork.centralSwitch.bridging.streamFilter.ingress.gate[1] gateState:vector ETV
attr enum CLOSED,OPEN
attr interpolationmode sample-hold
attr recordingmode vector
attr source gateStateChanged
attr title "gate state"
attr type enum
vector 205 MinimalAttackNetwork.centralSwitch.bridging.streamFilter.ingress.gate[2] incomingPacketLengths:vector ETV
attr interpolationmode none
attr recordingmode vector
[...]
3144	234595	0.4133	0
3144	234605	0.4134	0
3144	234669	0.4135	0
3144	234775	0.4136	0
3144	234838	0.4137	0
3144	234889	0.4138	0
3144	234899	0.4139	0
3144	234971	0.414	0
3144	235057	0.4141	0
3144	235120	0.4142	0
3144	235171	0.4143	0
3144	235181	0.4144	0
3144	235245	0.4145	0
3144	235327	0.4146	0
3144	235390	0.4147	0
3144	235441	0.4148	0
3144	235451	0.4149	0
3144	235523	0.415	0
3144	235638	0.4151	0
3144	235672	0.4152	0
3144	235723	0.4153	0
3144	235733	0.4154	0
3144	235797	0.4155	0
3144	235908	0.4156	0
3144	235942	0.4157	0
3144	235993	0.4158	0
3144	236003	0.4159	0
3144	236075	0.416	0
3144	236190	0.4161	0
3144	236224	0.4162	0
3144	236275	0.4163	0
3144	236285	0.4164	0
3144	236349	0.4165	0
3144	236460	0.4166	0
3144	236494	0.4167	0
3144	236545	0.4168	0
3144	236555	0.4169	0
3144	236627	0.417	0
3144	236742	0.4171	0
3144	236776	0.4172	0
3144	236827	0.4173	0
3144	236837	0.4174	0
3144	236901	0.4175	0
3144	237012	0.4176	0
3144	237075	0.4177	0
3144	237097	0.4178	0
3144	237107	0.4179	0
3144	237179	0.418	0
3144	237294	0.4181	0
3144	237357	0.4182	0
3144	237379	0.4183	0
3144	237389	0.4184	0
3144	237453	0.4185	0
3144	237564	0.4186	0
3144	237627	0.4187	0
3144	237649	0.4188	0
3144	237659	0.4189	0
3144	237731	0.419	0
3144	237841	0.4191	0
3144	237904	0.4192	0
3144	237926	0.4193	0
3144	237936	0.4194	0
3144	238000	0.4195	0
3144	238106	0.4196	0
3144	238169	0.4197	0
3144	238191	0.4198	0
3144	238201	0.4199	0
3144	238279	0.42	0
3144	238422	0.4201	0
3144	238485	0.4202	0
3144	238536	0.4203	0
3144	238546	0.4204	0
3144	238610	0.4205	0
3144	238692	0.4206	0
3144	238755	0.4207	0
3144	238806	0.4208	0
3144	238816	0.4209	0
3144	238888	0.421	0
3144	239018	0.4211	0
3144	239081	0.4212	0
3144	239132	0.4213	0
3144	239142	0.4214	0
3144	239206	0.4215	0
3144	239322	0.4216	0
3144	239356	0.4217	0
3144	239407	0.4218	0
3144	239417	0.4219	0
3144	239489	0.422	0
3144	239604	0.4221	0
3144	239638	0.4222	0
3144	239689	0.4223	0
3144	239699	0.4224	0
3144	239763	0.4225	0
3144	239874	0.4226	0
3144	239908	0.4227	0
3144	239959	0.4228	0
3144	239969	0.4229	0
3144	240041	0.423	0
3144	240156	0.4231	0
3144	240190	0.4232	0
3144	240241	0.4233	0
3144	240251	0.4234	0
3144	240315	0.4235	0
3144	240426	0.4236	0
3144	240489	0.4237	0
3144	240511	0.4238	0
3144	240521	0.4239	0
3144	240593	0.424	0
3144	240708	0.4241	0
3144	240771	0.4242	0
3144	240793	0.4243	0
3144	240803	0.4244	0
3144	240867	0.4245	0
3144	240978	0.4246	0
3144	241041	0.4247	0
3144	241063	0.4248	0
3144	241073	0.4249	0
3144	241145	0.425	0
3144	241255	0.4251	0
3144	241318	0.4252	0
3144	241340	0.4253	0
3144	241350	0.4254	0
3144	241414	0.4255	0
3144	241520	0.4256	0
3144	241583	0.4257	0
3144	241605	0.4258	0
3144	241615	0.4259	0
3144	241687	0.426	0
3144	241797	0.4261	0
3144	241860	0.4262	0
3144	241911	0.4263	0
3144	241921	0.4264	0
3144	241985	0.4265	0
3144	242067	0.4266	0
3144	242130	0.4267	0
3144	242181	0.4268	0
3144	242191	0.4269	0
3144	242263	0.427	0
3144	242349	0.4271	0
3144	242412	0.4272	0
3144	242463	0.4273	0
3144	242473	0.4274	0
3144	242537	0.4275	0
3144	242648	0.4276	0
3144	242682	0.4277	0
3144	242733	0.4278	0
3144	242743	0.4279	0
3144	242815	0.428	0
3144	242930	0.4281	0
3144	242964	0.4282	0
3144	243015	0.4283	0
3144	243025	0.4284	0
3144	243089	0.4285	0
3144	243200	0.4286	0
3144	243234	0.4287	0
3144	243285	0.4288	0
3144	243295	0.4289	0
3144	243367	0.429	0
3144	243482	0.4291	0
3144	243516	0.4292	0
3144	243567	0.4293	0
3144	243577	0.4294	0
3144	243641	0.4295	0
3144	243752	0.4296	0
3144	243786	0.4297	0
3144	243837	0.4298	0
3144	243847	0.4299	0
3144	243925	0.43	0
3144	244073	0.4301	0
3144	244136	0.4302	0
3144	244158	0.4303	0
3144	244168	0.4304	0
3144	244232	0.4305	0
3144	244343	0.4306	0
3144	244406	0.4307	0
3144	244428	0.4308	0
3144	244438	0.4309	0
3144	244510	0.431	0
3144	244669	0.4311	0
3144	244732	0.4312	0
3144	244754	0.4313	0
3144	244764	0.4314	0
3144	244828	0.4315	0
3144	244939	0.4316	0
3144	245002	0.4317	0
3144	245024	0.4318	0
3144	245034	0.4319	0
3144	245106	0.432	0
3144	245216	0.4321	0
3144	245279	0.4322	0
3144	245301	0.4323	0
3144	245311	0.4324	0
3144	245375	0.4325	0
3144	245481	0.4326	0
3144	245544	0.4327	0
3144	245595	0.4328	0
3144	245605	0.4329	0
3144	245677	0.433	0
3144	245763	0.4331	0
3144	245826	0.4332	0
3144	245877	0.4333	0
3144	245887	0.4334	0
3144	245951	0.4335	0
3144	246033	0.4336	0
3144	246096	0.4337	0
3144	246147	0.4338	0
3144	246157	0.4339	0
3144	246229	0.434	0
3144	246344	0.4341	0
3144	246378	0.4342	0
3144	246429	0.4343	0
3144	246439	0.4344	0
3144	246503	0.4345	0
3144	246614	0.4346	0
3144	246648	0.4347	0
3144	246699	0.4348	0
3144	246709	0.4349	0
3144	246781	0.435	0
3144	246896	0.4351	0
3144	246930	0.4352	0
3144	246981	0.4353	0
3144	246991	0.4354	0
3144	247055	0.4355	0
3144	247166	0.4356	0
3144	247200	0.4357	0
3144	247251	0.4358	0
3144	247261	0.4359	0
3144	247333	0.436	0
3144	247448	0.4361	0
3144	247482	0.4362	0
3144	247533	0.4363	0
3144	247543	0.4364	0
3144	247607	0.4365	0
3144	247718	0.4366	0
3144	247781	0.4367	0
3144	247803	0.4368	0
3144	247813	0.4369	0
3144	247885	0.437	0
3144	248000	0.4371	0
3144	248063	0.4372	0
3144	248085	0.4373	0
3144	248095	0.4374	0
3144	248159	0.4375	0
3144	248270	0.4376	0
3144	248333	0.4377	0
3144	248355	0.4378	0
3144	248365	0.4379	0
3144	248437	0.438	0
3144	248547	0.4381	0
3144	248610	0.4382	0
3144	248632	0.4383	0
3144	248642	0.4384	0
3144	248706	0.4385	0
3144	248812	0.4386	0
3144	248875	0.4387	0
3144	248897	0.4388	0
3144	248907	0.4389	0
3144	248979	0.439	0
3144	249089	0.4391	0
3144	249152	0.4392	0
3144	249203	0.4393	0
3144	249213	0.4394	0
3144	249277	0.4395	0
3144	249359	0.4396	0
3144	249422	0.4397	0
3144	249473	0.4398	0
3144	249483	0.4399	0
3144	249561	0.44	0
3144	249680	0.4401	0
3144	249743	0.4402	0
3144	249794	0.4403	0
3144	249804	0.4404	0
3144	249868	0.4405	0
3144	249979	0.4406	0
3144	250013	0.4407	0
3144	250064	0.4408	0
3144	250074	0.4409	0
3144	250146	0.441	0
3144	250305	0.4411	0
3144	250339	0.4412	0
3144	250390	0.4413	0
3144	250400	0.4414	0
3144	250464	0.4415	0
3144	250580	0.4416	0
3144	250614	0.4417	0
3144	250665	0.4418	0
3144	250675	0.4419	0
3144	250747	0.442	0
3144	250862	0.4421	0
3144	250896	0.4422	0
3144	250947	0.4423	0
3144	250957	0.4424	0
3144	251021	0.4425	0
3144	251132	0.4426	0
3144	251166	0.4427	0
3144	251217	0.4428	0
3144	251227	0.4429	0
3144	251299	0.443	0
3144	251414	0.4431	0
3144	251477	0.4432	0
3144	251499	0.4433	0
3144	251509	0.4434	0
3144	251573	0.4435	0
3144	251684	0.4436	0
3144	251747	0.4437	0
3144	251769	0.4438	0
3144	251779	0.4439	0
3144	251851	0.444	0
3144	251961	0.4441	0
3144	252024	0.4442	0
3144	252046	0.4443	0
3144	252056	0.4444	0
3144	252120	0.4445	0
3144	252226	0.4446	0
3144	252289	0.4447	0
3144	252311	0.4448	0
3144	252321	0.4449	0
3144	252393	0.445	0
3144	252503	0.4451	0
3144	252566	0.4452	0
3144	252617	0.4453	0
3144	252627	0.4454	0
3144	252691	0.4455	0
3144	252773	0.4456	0
3144	252836	0.4457	0
3144	252887	0.4458	0
3144	252897	0.4459	0
3144	252969	0.446	0
3144	253055	0.4461	0
3144	253118	0.4462	0
3144	253169	0.4463	0
3144	253179	0.4464	0
3144	253243	0.4465	0
3144	253354	0.4466	0
3144	253388	0.4467	0
3144	253439	0.4468	0
3144	253449	0.4469	0
3144	253521	0.447	0
3144	253636	0.4471	0
3144	253670	0.4472	0
3144	253721	0.4473	0
3144	253731	0.4474	0
3144	253795	0.4475	0
3144	253906	0.4476	0
3144	253940	0.4477	0
3144	253991	0.4478	0
3144	254001	0.4479	0
3144	254073	0.448	0
3144	254188	0.4481	0
3144	254222	0.4482	0
3144	254273	0.4483	0
3144	254283	0.4484	0
3144	254347	0.4485	0
3144	254458	0.4486	0
3144	254492	0.4487	0
3144	254543	0.4488	0
3144	254553	0.4489	0
3144	254625	0.449	0
3144	254740	0.4491	0
3144	254803	0.4492	0
3144	254825	0.4493	0
3144	254835	0.4494	0
3144	254899	0.4495	0
3144	255010	0.4496	0
3144	255073	0.4497	0
3144	255095	0.4498	0
3144	255105	0.4499	0
3144	255194	0.45	0
3144	255380	0.4501	0
3144	255443	0.4502	0
3144	255465	0.4503	0
3144	255475	0.4504	0
3144	255539	0.4505	0
3144	255645	0.4506	0
3144	255708	0.4507	0
3144	255730	0.4508	0
3144	255740	0.4509	0
3144	255831	0.451	0
3144	255951	0.4510196	1.9570373e-05
3144	256035	0.4511	0
3144	256098	0.4512	0
3144	256120	0.4513	0
3144	256130	0.4514	0
3144	256194	0.4515	0
3144	256317	0.4516	0
3144	256380	0.4517	0
3144	256431	0.4518	0
3144	256441	0.4519	0
3144	256513	0.452	0
3144	256599	0.4521	0
3144	256662	0.4522	0
3144	256713	0.4523	0
3144	256723	0.4524	0
3144	256787	0.4525	0
3144	256869	0.4526	0
3144	256932	0.4527	0
3144	256983	0.4528	0
3144	256993	0.4529	0
3144	257065	0.453	0
3144	257180	0.4531	0
3144	257214	0.4532	0
3144	257265	0.4533	0
3144	257275	0.4534	0
3144	257339	0.4535	0
3144	257450	0.4536	0
3144	257484	0.4537	0
3144	257535	0.4538	0
3144	257545	0.4539	0
3144	257617	0.454	0
3144	257732	0.4541	0
3144	257766	0.4542	0
3144	257817	0.4543	0
3144	257827	0.4544	0
3144	257891	0.4545	0
3144	258002	0.4546	0
3144	258036	0.4547	0
3144	258087	0.4548	0
3144	258097	0.4549	0
3144	258169	0.455	0
3144	258284	0.4551	0
3144	258318	0.4552	0
3144	258369	0.4553	0
3144	258379	0.4554	0
3144	258443	0.4555	0
3144	258554	0.4556	0
3144	258617	0.4557	0
3144	258639	0.4558	0
3144	258649	0.4559	0
3144	258721	0.456	0
3144	258836	0.4561	0
3144	258899	0.4562	0
3144	258921	0.4563	0
3144	258931	0.4564	0
3144	258995	0.4565	0
3144	259106	0.4566	0
3144	259169	0.4567	0
3144	259191	0.4568	0
3144	259201	0.4569	0
3144	259273	0.457	0
3144	259383	0.4571	0
3144	259446	0.4572	0
3144	259468	0.4573	0
3144	259478	0.4574	0
3144	259542	0.4575	0
3144	259648	0.4576	0
3144	259711	0.4577	0
3144	259733	0.4578	0
3144	259743	0.4579	0
3144	259815	0.458	0
3144	259925	0.4581	0
3144	259988	0.4582	0
3144	260039	0.4583	0
3144	260049	0.4584	0
3144	260113	0.4585	0
3144	260195	0.4586	0
3144	260258	0.4587	0
3144	260309	0.4588	0
3144	260319	0.4589	0
3144	260391	0.459	0
3144	260477	0.4591	0
3144	260540	0.4592	0
3144	260591	0.4593	0
3144	260601	0.4594	0
3144	260665	0.4595	0
3144	260776	0.4596	0
3144	260810	0.4597	0
3144	260861	0.4598	0
3144	260871	0.4599	0
3144	260949	0.46	0
3144	261097	0.4601	0
3144	261131	0.4602	0
3144	261182	0.4603	0
3144	261192	0.4604	0
3144	261256	0.4605	0
3144	261367	0.4606	0
3144	261401	0.4607	0
3144	261452	0.4608	0
3144	261462	0.4609	0
3144	261534	0.461	0
3144	261693	0.4611	0
3144	261727	0.4612	0
3144	261778	0.4613	0
3144	261788	0.4614	0
3144	261852	0.4615	0
3144	261968	0.4616	0
3144	262002	0.4617	0
3144	262053	0.4618	0
3144	262063	0.4619	0
3144	262135	0.462	0
3144	262250	0.4621	0
3144	262313	0.4622	0
3144	262335	0.4623	0
3144	262345	0.4624	0
3144	262409	0.4625	0
3144	262520	0.4626	0
3144	262583	0.4627	0
3144	262605	0.4628	0
3144	262615	0.4629	0
3144	262687	0.463	0
3144	262802	0.4631	0
3144	262865	0.4632	0
3144	262887	0.4633	0
3144	262897	0.4634	0
3144	262961	0.4635	0
3144	263067	0.4636	0
3144	263130	0.4637	0
3144	263152	0.4638	0
3144	263162	0.4639	0
3144	263234	0.464	0
3144	263344	0.4641	0
3144	263407	0.4642	0
3144	263458	0.4643	0
3144	263468	0.4644	0
3144	263532	0.4645	0
3144	263614	0.4646	0
3144	263677	0.4647	0
3144	263728	0.4648	0
3144	263738	0.4649	0
3144	263810	0.465	0
3144	263896	0.4651	0
3144	263959	0.4652	0
3144	264010	0.4653	0
3144	264020	0.4654	0
3144	264084	0.4655	0
3144	264195	0.4656	0
3144	264229	0.4657	0
3144	264280	0.4658	0
3144	264290	0.4659	0
3144	264362	0.466	0
3144	264477	0.4661	0
3144	264511	0.4662	0
3144	264562	0.4663	0
3144	264572	0.4664	0
3144	264636	0.4665	0
3144	264747	0.4666	0
3144	264781	0.4667	0
3144	264832	0.4668	0
3144	264842	0.4669	0
3144	264914	0.467	0
3144	265029	0.4671	0
3144	265063	0.4672	0
3144	265114	0.4673	0
3144	265124	0.4674	0
3144	265188	0.4675	0
3144	265299	0.4676	0
3144	265333	0.4677	0
3144	265384	0.4678	0
3144	265394	0.4679	0
3144	265466	0.468	0
3144	265581	0.4681	0
3144	265644	0.4682	0
3144	265666	0.4683	0
3144	265676	0.4684	0
3144	265740	0.4685	0
3144	265851	0.4686	0
3144	265914	0.4687	0
3144	265936	0.4688	0
3144	265946	0.4689	0
3144	266018	0.469	0
3144	266133	0.4691	0
3144	266196	0.4692	0
3144	266218	0.4693	0
3144	266228	0.4694	0
3144	266292	0.4695	0
3144	266398	0.4696	0
3144	266461	0.4697	0
3144	266483	0.4698	0
3144	266493	0.4699	0
3144	266571	0.47	0
3144	266714	0.4701	0
3144	266777	0.4702	0
3144	266799	0.4703	0
3144	266809	0.4704	0
3144	266873	0.4705	0
3144	266979	0.4706	0
3144	267042	0.4707	0
3144	267093	0.4708	0
3144	267103	0.4709	0
3144	267175	0.471	0
3144	267305	0.4711	0
3144	267368	0.4712	0
3144	267419	0.4713	0
3144	267429	0.4714	0
3144	267493	0.4715	0
3144	267580	0.4716	0
3144	267643	0.4717	0
3144	267694	0.4718	0
3144	267704	0.4719	0
3144	267776	0.472	0
3144	267891	0.4721	0
3144	267925	0.4722	0
3144	267976	0.4723	0
3144	267986	0.4724	0
3144	268050	0.4725	0
3144	268161	0.4726	0
3144	268195	0.4727	0
3144	268246	0.4728	0
3144	268256	0.4729	0
3144	268328	0.473	0
3144	268443	0.4731	0
3144	268477	0.4732	0
3144	268528	0.4733	0
3144	268538	0.4734	0
3144	268602	0.4735	0
3144	268713	0.4736	0
3144	268747	0.4737	0
3144	268798	0.4738	0
3144	268808	0.4739	0
3144	268880	0.474	0
3144	268995	0.4741	0
3144	269029	0.4742	0
3144	269080	0.4743	0
3144	269090	0.4744	0
3144	269154	0.4745	0
3144	269265	0.4746	0
3144	269328	0.4747	0
3144	269350	0.4748	0
3144	269360	0.4749	0
3144	269432	0.475	0
3144	269547	0.4751	0
3144	269610	0.4752	0
3144	269632	0.4753	0
3144	269642	0.4754	0
3144	269706	0.4755	0
3144	269817	0.4756	0
3144	269880	0.4757	0
3144	269902	0.4758	0
3144	269912	0.4759	0
3144	269984	0.476	0
3144	270094	0.4761	0
3144	270157	0.4762	0
3144	270179	0.4763	0
3144	270189	0.4764	0
3144	270253	0.4765	0
3144	270359	0.4766	0
3144	270422	0.4767	0
3144	270444	0.4768	0
3144	270454	0.4769	0
3144	270526	0.477	0
3144	270636	0.4771	0
3144	270699	0.4772	0
3144	270750	0.4773	0
3144	270760	0.4774	0
3144	270824	0.4775	0
3144	270906	0.4776	0
3144	270969	0.4777	0
3144	271020	0.4778	0
3144	271030	0.4779	0
3144	271102	0.478	0
3144	271188	0.4781	0
3144	271251	0.4782	0
3144	271302	0.4783	0
3144	271312	0.4784	0
3144	271376	0.4785	0
3144	271487	0.4786	0
3144	271521	0.4787	0
3144	271572	0.4788	0
3144	271582	0.4789	0
3144	271654	0.479	0
3144	271769	0.4791	0
3144	271803	0.4792	0
3144	271854	0.4793	0
3144	271864	0.4794	0
3144	271928	0.4795	0
3144	272039	0.4796	0
3144	272073	0.4797	0
3144	272124	0.4798	0
3144	272134	0.4799	0
3144	272212	0.48	0
3144	272360	0.4801	0
3144	272394	0.4802	0
3144	272445	0.4803	0
3144	272455	0.4804	0
3144	272519	0.4805	0
3144	272630	0.4806	0
3144	272664	0.4807	0
3144	272715	0.4808	0
3144	272725	0.4809	0
3144	272797	0.481	0
3144	272956	0.4811	0
3144	273019	0.4812	0
3144	273041	0.4813	0
3144	273051	0.4814	0
3144	273115	0.4815	0
3144	273231	0.4816	0
3144	273294	0.4817	0
3144	273316	0.4818	0
3144	273326	0.4819	0
3144	273398	0.482	0
3144	273513	0.4821	0
3144	273576	0.4822	0
3144	273598	0.4823	0
3144	273608	0.4824	0
3144	273672	0.4825	0
3144	273778	0.4826	0
3144	273841	0.4827	0
3144	273863	0.4828	0
3144	273873	0.4829	0
3144	273945	0.483	0
3144	274055	0.4831	0
3144	274118	0.4832	0
3144	274140	0.4833	0
3144	274150	0.4834	0
3144	274214	0.4835	0
3144	274320	0.4836	0
3144	274383	0.4837	0
3144	274434	0.4838	0
3144	274444	0.4839	0
3144	274516	0.484	0
3144	274602	0.4841	0
3144	274665	0.4842	0
3144	274716	0.4843	0
3144	274726	0.4844	0
3144	274790	0.4845	0
3144	274901	0.4846	0
3144	274935	0.4847	0
3144	274986	0.4848	0
3144	274996	0.4849	0
3144	275068	0.485	0
3144	275183	0.4851	0
3144	275217	0.4852	0
3144	275268	0.4853	0
3144	275278	0.4854	0
3144	275342	0.4855	0
3144	275453	0.4856	0
3144	275487	0.4857	0
3144	275538	0.4858	0
3144	275548	0.4859	0
3144	275620	0.486	0
3144	275735	0.4861	0
3144	275769	0.4862	0
3144	275820	0.4863	0
3144	275830	0.4864	0
3144	275894	0.4865	0
3144	276005	0.4866	0
3144	276039	0.4867	0
3144	276090	0.4868	0
3144	276100	0.4869	0
3144	276172	0.487	0
3144	276287	0.4871	0
3144	276350	0.4872	0
3144	276372	0.4873	0
3144	276382	0.4874	0
3144	276446	0.4875	0
3144	276557	0.4876	0
3144	276620	0.4877	0
3144	276642	0.4878	0
3144	276652	0.4879	0
3144	276724	0.488	0
3144	276839	0.4881	0
3144	276902	0.4882	0
3144	276924	0.4883	0
3144	276934	0.4884	0
3144	276998	0.4885	0
3144	277104	0.4886	0
3144	277167	0.4887	0
3144	277189	0.4888	0
3144	277199	0.4889	0
3144	277271	0.489	0
3144	277381	0.4891	0
3144	277444	0.4892	0
3144	277466	0.4893	0
3144	277476	0.4894	0
3144	277540	0.4895	0
3144	277646	0.4896	0
3144	277709	0.4897	0
3144	277760	0.4898	0
3144	277770	0.4899	0
3144	277848	0.49	0
3144	277967	0.4901	0
3144	278030	0.4902	0
3144	278081	0.4903	0
3144	278091	0.4904	0
3144	278155	0.4905	0
3144	278237	0.4906	0
3144	278300	0.4907	0
3144	278351	0.4908	0
3144	278361	0.4909	0
3144	278433	0.491	0
3144	278592	0.4911	0
3144	278626	0.4912	0
3144	278677	0.4913	0
3144	278687	0.4914	0
3144	278751	0.4915	0
3144	278867	0.4916	0
3144	278901	0.4917	0
3144	278952	0.4918	0
3144	278962	0.4919	0
3144	279034	0.492	0
3144	279149	0.4921	0
3144	279183	0.4922	0
3144	279234	0.4923	0
3144	279244	0.4924	0
3144	279308	0.4925	0
3144	279419	0.4926	0
3144	279453	0.4927	0
3144	279504	0.4928	0
3144	279514	0.4929	0
3144	279586	0.493	0
3144	279701	0.4931	0
3144	279735	0.4932	0
3144	279786	0.4933	0
3144	279796	0.4934	0
3144	279860	0.4935	0
3144	279971	0.4936	0
3144	280034	0.4937	0
3144	280056	0.4938	0
3144	280066	0.4939	0
3144	280138	0.494	0
3144	280253	0.4941	0
3144	280316	0.4942	0
3144	280338	0.4943	0
3144	280348	0.4944	0
3144	280412	0.4945	0
3144	280523	0.4946	0
3144	280586	0.4947	0
3144	280608	0.4948	0
3144	280618	0.4949	0
3144	280690	0.495	0
3144	280800	0.4951	0
3144	280863	0.4952	0
3144	280885	0.4953	0
3144	280895	0.4954	0
3144	280959	0.4955	0
3144	281065	0.4956	0
3144	281128	0.4957	0
3144	281150	0.4958	0
3144	281160	0.4959	0
3144	281232	0.496	0
3144	281342	0.4961	0
3144	281405	0.4962	0
3144	281456	0.4963	0
3144	281466	0.4964	0
3144	281530	0.4965	0
3144	281612	0.4966	0
3144	281675	0.4967	0
3144	281726	0.4968	0
3144	281736	0.4969	0
3144	281808	0.497	0
3144	281894	0.4971	0
3144	281957	0.4972	0
3144	282008	0.4973	0
3144	282018	0.4974	0
3144	282082	0.4975	0
3144	282193	0.4976	0
3144	282227	0.4977	0
3144	282278	0.4978	0
3144	282288	0.4979	0
3144	282360	0.498	0
3144	282475	0.4981	0
3144	282509	0.4982	0
3144	282560	0.4983	0
3144	282570	0.4984	0
3144	282634	0.4985	0
3144	282745	0.4986	0
3144	282779	0.4987	0
3144	282830	0.4988	0
3144	282840	0.4989	0
3144	282912	0.499	0
3144	283027	0.4991	0
3144	283061	0.4992	0
3144	283112	0.4993	0
3144	283122	0.4994	0
3144	283186	0.4995	0
3144	283297	0.4996	0
3144	283331	0.4997	0
3144	283382	0.4998	0
3144	283392	0.4999	0
3144	283481	0.5	0
3203	6318	0.00981864	18859638.40206
3203	11930	0.01981864	18640000
3203	17576	0.02981864	18640000
3203	23212	0.03981864	18640000
3203	28834	0.04981864	18640000
3203	34554	0.05971864	18704646.464646
3203	40205	0.06971864	18640000
3203	45812	0.07971864	18640000
3203	51453	0.08971864	18640000
3203	57070	0.09971864	18640000
3203	62773	0.10961864	18704646.464646
3203	68424	0.11961864	18640000
3203	74060	0.12961864	18640000
3203	79677	0.13961864	18640000
3203	85318	0.14961864	18640000
3203	90974	0.15951864	18704646.464646
3203	96612	0.16951864	18640000
3203	102248	0.17951864	18640000
3203	107870	0.18951864	18640000
3203	113506	0.19951864	18640000
3203	119182	0.20941864	18704646.464646
3203	124818	0.21941864	18640000
3203	130430	0.22941864	18640000
3203	136076	0.23941864	18640000
3203	141712	0.24941864	18640000
3203	147454	0.25931864	18704646.464646
3203	153095	0.26931864	18640000
3203	158717	0.27931864	18640000
3203	164353	0.28931864	18640000
3203	169965	0.29931864	18640000
3203	175690	0.30921864	18704646.464646
3203	181326	0.31921864	18640000
3203	186977	0.32921864	18640000
3203	192584	0.33921864	18640000
3203	198230	0.34921864	18640000
3203	203938	0.35911864	18704646.464646
3203	209550	0.36911864	18640000
3203	215201	0.37911864	18640000
3203	220808	0.38911864	18640000
3203	226459	0.39911864	18640000
3203	232123	0.40901864	18704646.464646
3203	237753	0.41901864	18640000
3203	243381	0.42901864	18640000
3203	249001	0.43901864	18640000
3203	254639	0.44901864	18640000
3203	260320	0.45891864	18704646.464646
3203	265947	0.46891864	18640000
3203	271583	0.47891864	18640000
3203	277200	0.48891864	18640000
3203	282841	0.49891864	18640000
3203	283482	0.5	17237552.7114
3227	57238	0.1	1475360
3227	113807	0.2	1400800
3227	170376	0.3	1382160
3227	226939	0.400014004	1525066.4296972
3227	283482	0.5	1388354.4251537

