version 3
run TimingAttack-3-20250831-17:13:06-454622
attr configname TimingAttack
attr datetime 20250831-17:13:06
attr datetimef 20250831-171306
attr experiment TimingAttack
attr inifile omnetpp.ini
attr iterationvars ""
attr iterationvarsd ""
attr iterationvarsf ""
attr measurement ""
attr network MinimalAttackNetwork
attr processid 454622
attr repetition 3
attr replication #3
attr resultdir results_flat
attr runnumber 3
attr seedset 3
config image-path ../../../../SharedRoom/omnetpp-ml-workspace/inet4.5/images
config extends Baseline
config description "Timing attack disrupting TSN synchronization (Label: timing_attack)"
config *.compromisedNode.clock.oscillator.driftRate 500ppm
config *.compromisedNode.numApps 1
config *.compromisedNode.app[0].typename UdpSourceApp
config *.compromisedNode.app[0].source.packetNameFormat "\"TIMING_ATTACK-%c\""
config *.compromisedNode.app[0].source.packetLength 64B
config *.compromisedNode.app[0].source.productionInterval "uniform(10us, 100us)"
config *.compromisedNode.app[0].source.startTime 50ms
config *.compromisedNode.app[0].source.stopTime 450ms
config *.compromisedNode.app[0].io.destAddress "\"mainECU\""
config *.compromisedNode.app[0].io.destPort 8888
config *.centralSwitch.eth[*].macLayer.queue.transmissionGate[6].initiallyOpen false
config *.centralSwitch.eth[*].macLayer.queue.transmissionGate[6].durations "[490us, 10us]"
config extends General
config description "Baseline: Normal TSN operation without attacks (Label: normal)"
config *.centralSwitch.bridging.streamFilter.ingress.hasDefaultPath false
config *.criticalSensor.numApps 2
config *.criticalSensor.app[0].typename UdpSourceApp
config *.criticalSensor.app[0].source.packetNameFormat "\"CRITICAL_SENSOR-%c\""
config *.criticalSensor.app[0].source.packetLength 175B
config *.criticalSensor.app[0].source.productionInterval 1ms
config *.criticalSensor.app[0].source.startTime 10ms
config *.criticalSensor.app[0].io.destAddress "\"mainECU\""
config *.criticalSensor.app[0].io.destPort 5000
config *.criticalSensor.app[1].typename UdpSourceApp
config *.criticalSensor.app[1].source.packetNameFormat "\"SENSOR_MON-%c\""
config *.criticalSensor.app[1].source.packetLength 150B
config *.criticalSensor.app[1].source.productionInterval 50ms
config *.criticalSensor.app[1].source.startTime 12ms
config *.criticalSensor.app[1].io.destAddress "\"display\""
config *.criticalSensor.app[1].io.destPort 7000
config *.display.numApps 3
config *.display.app[0].typename UdpSinkApp
config *.display.app[0].io.localPort 6000
config *.display.app[1].typename UdpSinkApp
config *.display.app[1].io.localPort 7000
config *.display.app[2].typename UdpSourceApp
config *.display.app[2].source.packetNameFormat "\"DISPLAY_UPDATE-%c\""
config *.display.app[2].source.packetLength 120B
config *.display.app[2].source.productionInterval 50ms
config *.display.app[2].source.startTime 15ms
config *.display.app[2].io.destAddress "\"mainECU\""
config *.display.app[2].io.destPort 6003
config *.mainECU.numApps 3
config *.mainECU.app[0].typename UdpSinkApp
config *.mainECU.app[0].io.localPort 5000
config *.mainECU.app[1].typename UdpSourceApp
config *.mainECU.app[1].source.packetNameFormat "\"STATUS_UPDATE-%c\""
config *.mainECU.app[1].source.packetLength 100B
config *.mainECU.app[1].source.productionInterval 10ms
config *.mainECU.app[1].source.startTime 20ms
config *.mainECU.app[1].io.destAddress "\"display\""
config *.mainECU.app[1].io.destPort 6000
config *.mainECU.app[2].typename UdpSinkApp
config *.mainECU.app[2].io.localPort 6003
config network MinimalAttackNetwork
config sim-time-limit 500ms
config description "Minimal TSN attack scenarios for ML training (500ms)"
config cmdenv-interactive false
config repeat 10
config seed-set 3
config *.dataCollector.outputFile "\"results_flat/tsn_signals_TimingAttack-#3.csv\""
config user-interface Cmdenv
config *.masterClock.eth[*].bitrate 100Mbps
config *.centralSwitch.eth[0].bitrate 100Mbps
config *.centralSwitch.eth[1].bitrate 1Gbps
config *.centralSwitch.eth[2].bitrate 100Mbps
config *.centralSwitch.eth[3].bitrate 100Mbps
config *.centralSwitch.eth[4].bitrate 100Mbps
config *.centralSwitch.eth[5].bitrate 100Mbps
config *.mainECU.eth[*].bitrate 1Gbps
config *.criticalSensor.eth[*].bitrate 100Mbps
config *.display.eth[*].bitrate 100Mbps
config *.attackerExternal.eth[*].bitrate 100Mbps
config *.compromisedNode.eth[*].bitrate 100Mbps
config *.configurator.config "xml(\"<config><interface hosts='**' address='10.0.0.x' netmask='255.255.255.0'/></config>\")"
config *.centralSwitch.typename TsnSwitch
config *.mainECU.typename TsnDevice
config *.criticalSensor.typename TsnDevice
config *.display.typename TsnDevice
config *.attackerExternal.typename TsnDevice
config *.compromisedNode.typename TsnDevice
config *.masterClock.typename TsnClock
config *.mainECU.hasUdp true
config *.criticalSensor.hasUdp true
config *.display.hasUdp true
config *.attackerExternal.hasUdp true
config *.compromisedNode.hasUdp true
config *.mainECU.hasIpv4 true
config *.criticalSensor.hasIpv4 true
config *.display.hasIpv4 true
config *.attackerExternal.hasIpv4 true
config *.compromisedNode.hasIpv4 true
config *.*.hasTimeSynchronization true
config *.*.clock.oscillator.driftRate "uniform(-20ppm, 20ppm)"
config **.gptp.syncInterval 10ms
config **.gptp.syncInitialOffset 1ms
config **.gptp.pdelayInterval 50ms
config **.gptp.pdelayInitialOffset 1ms
config *.masterClock.gptp.masterPorts "[\"eth0\"]"
config *.centralSwitch.gptp.slavePort "\"eth0\""
config *.centralSwitch.gptp.masterPorts "[\"eth1\",\"eth2\",\"eth3\",\"eth4\",\"eth5\"]"
config *.*.hasOutgoingStreams true
config *.centralSwitch.hasEgressTrafficShaping true
config *.centralSwitch.hasIncomingStreams true
config *.criticalSensor.bridging.streamIdentifier.typename StreamIdentifierLayer
config *.criticalSensor.bridging.streamCoder.typename StreamCoderLayer
config *.centralSwitch.bridging.streamCoder.encoder.mapping "[{stream: \"critical_control\", pcp: 7, vlan: 10}, {stream: \"status_updates\", pcp: 5, vlan: 30}, {stream: \"display_data\", pcp: 3, vlan: 20}, {stream: \"external_attack\", pcp: 0, vlan: 40}, {stream: \"compromised_attack\", pcp: 0, vlan: 41}]"
config *.centralSwitch.bridging.streamCoder.decoder.mapping "[{stream: \"critical_control\", pcp: 7, destination: \"mainECU\"}, {stream: \"status_updates\", pcp: 5, destination: \"mainECU\"}, {stream: \"display_data\", pcp: 3, destination: \"mainECU\"}, {stream: \"external_attack\", pcp: 0, source: \"attackerExternal\", destination: \"mainECU\"}, {stream: \"compromised_attack\", pcp: 0, source: \"compromisedNode\", destination: \"mainECU\"}]"
config "*.centralSwitch.bridging.streamCoder.decoder.mapping +" "[{pcp: 4, stream: \"sensor_monitoring\"}]"
config "*.centralSwitch.bridging.streamCoder.decoder.mapping +" "[{pcp: 4, destination: \"display\", stream: \"sensor_monitoring\"}]"
config "*.centralSwitch.bridging.streamCoder.decoder.mapping +" "[{stream: \"sensor_monitoring\", packetFilter: expr(has(udp) && udp.destPort == 7000)}]"
config "*.centralSwitch.bridging.streamCoder.encoder.mapping +" "[{stream: \"sensor_monitoring\", pcp: 4, vlan: 25}]"
config "*.centralSwitch.bridging.streamCoder.decoder.mapping +" "[{destination: \"01:80:C2:00:00:0E\", stream: \"gptp\"}]"
config "*.centralSwitch.bridging.streamCoder.decoder.mapping +" "[{packetFilter: expr(ethernetMacHeader.typeOrLength == 0x88f7), stream: \"gptp\"}]"
config "*.centralSwitch.bridging.streamCoder.decoder.mapping +" "[{pcp: 0, stream: \"default_stream\"}]"
config "*.centralSwitch.bridging.streamIdentifier.identifier.mapping +" "[{stream: \"gptp\", packetFilter: expr(has(etherTypeInd) && etherTypeInd.etherType == 0x88f7)}]"
config "*.centralSwitch.bridging.streamIdentifier.identifier.mapping +" "[{stream: \"gptp\", packetFilter: expr(ethernetMacHeader.typeOrLength == 0x88f7)}]"
config "*.centralSwitch.bridging.streamIdentifier.identifier.mapping +" "[{stream: \"gptp\", packetFilter: expr(etherType == 0x88f7)}]"
config "*.centralSwitch.bridging.streamIdentifier.identifier.mapping +" "[{stream: \"gptp\", packetFilter: expr(destAddress == \"01:80:C2:00:00:0E\")}]"
config *.centralSwitch.bridging.streamFilter.ingress.numStreams 8
config *.centralSwitch.bridging.streamFilter.ingress.classifier.mapping "{\"critical_control\": 0, \"status_updates\": 1, \"external_attack\": 2, \"compromised_attack\": 3, \"display_data\": 4, \"gptp\": 5, \"default_stream\": 6, \"sensor_monitoring\": 7}"
config *.centralSwitch.bridging.streamFilter.ingress.hasDefaultPath false
config *.centralSwitch.bridging.streamFilter.ingress.classifier.mode "\"both\""
config *.centralSwitch.bridging.streamFilter.ingress.classifier.defaultGateIndex 5
config *.centralSwitch.bridging.streamFilter.ingress.meter[*].typename DualRateThreeColorMeter
config *.centralSwitch.bridging.streamFilter.ingress.meter[0].display-name critical_control
config *.centralSwitch.bridging.streamFilter.ingress.meter[1].display-name status_updates
config *.centralSwitch.bridging.streamFilter.ingress.meter[2].display-name external_attack
config *.centralSwitch.bridging.streamFilter.ingress.meter[3].display-name compromised_attack
config *.centralSwitch.bridging.streamFilter.ingress.meter[4].display-name display_data
config *.centralSwitch.bridging.streamFilter.ingress.meter[0].committedInformationRate 10Mbps
config *.centralSwitch.bridging.streamFilter.ingress.meter[0].committedBurstSize 5kB
config *.centralSwitch.bridging.streamFilter.ingress.meter[0].excessInformationRate 5Mbps
config *.centralSwitch.bridging.streamFilter.ingress.meter[0].excessBurstSize 3kB
config *.centralSwitch.bridging.streamFilter.ingress.meter[1].committedInformationRate 5Mbps
config *.centralSwitch.bridging.streamFilter.ingress.meter[1].committedBurstSize 3kB
config *.centralSwitch.bridging.streamFilter.ingress.meter[1].excessInformationRate 2Mbps
config *.centralSwitch.bridging.streamFilter.ingress.meter[1].excessBurstSize 1kB
config *.centralSwitch.bridging.streamFilter.ingress.meter[2].committedInformationRate 50kbps
config *.centralSwitch.bridging.streamFilter.ingress.meter[2].committedBurstSize 256B
config *.centralSwitch.bridging.streamFilter.ingress.meter[2].excessInformationRate 25kbps
config *.centralSwitch.bridging.streamFilter.ingress.meter[2].excessBurstSize 128B
config *.centralSwitch.bridging.streamFilter.ingress.meter[3].committedInformationRate 50kbps
config *.centralSwitch.bridging.streamFilter.ingress.meter[3].committedBurstSize 256B
config *.centralSwitch.bridging.streamFilter.ingress.meter[3].excessInformationRate 25kbps
config *.centralSwitch.bridging.streamFilter.ingress.meter[3].excessBurstSize 128B
config *.centralSwitch.bridging.streamFilter.ingress.meter[4].committedInformationRate 2Mbps
config *.centralSwitch.bridging.streamFilter.ingress.meter[4].committedBurstSize 2kB
config *.centralSwitch.bridging.streamFilter.ingress.meter[4].excessInformationRate 1Mbps
config *.centralSwitch.bridging.streamFilter.ingress.meter[4].excessBurstSize 1kB
config *.centralSwitch.bridging.streamFilter.ingress.meter[5].display-name gptp
config *.centralSwitch.bridging.streamFilter.ingress.meter[5].committedInformationRate 1Mbps
config *.centralSwitch.bridging.streamFilter.ingress.meter[5].committedBurstSize 1kB
config *.centralSwitch.bridging.streamFilter.ingress.meter[5].excessInformationRate 1Mbps
config *.centralSwitch.bridging.streamFilter.ingress.meter[5].excessBurstSize 1kB
config *.centralSwitch.bridging.streamFilter.ingress.meter[6].display-name default_stream
config *.centralSwitch.bridging.streamFilter.ingress.meter[6].committedInformationRate 1bps
config *.centralSwitch.bridging.streamFilter.ingress.meter[6].committedBurstSize 1B
config *.centralSwitch.bridging.streamFilter.ingress.meter[6].excessInformationRate 1bps
config *.centralSwitch.bridging.streamFilter.ingress.meter[6].excessBurstSize 1B
config *.centralSwitch.bridging.streamFilter.ingress.meter[7].display-name sensor_monitoring
config *.centralSwitch.bridging.streamFilter.ingress.meter[7].committedInformationRate 3Mbps
config *.centralSwitch.bridging.streamFilter.ingress.meter[7].committedBurstSize 2kB
config *.centralSwitch.bridging.streamFilter.ingress.meter[7].excessInformationRate 1Mbps
config *.centralSwitch.bridging.streamFilter.ingress.meter[7].excessBurstSize 1kB
config *.centralSwitch.bridging.streamFilter.ingress.filter[5].labelFilter "\"green or yellow\""
config *.criticalSensor.bridging.streamIdentifier.identifier.mapping "[{stream: \"critical_control\", packetFilter: expr(has(udp) && udp.destPort == 5000)}]"
config *.criticalSensor.bridging.streamCoder.encoder.mapping "[{stream: \"critical_control\", pcp: 7, vlan: 10}]"
config *.mainECU.bridging.streamIdentifier.identifier.mapping "[{stream: \"status_updates\", packetFilter: expr(has(udp) && udp.destPort == 6000)}]"
config *.mainECU.bridging.streamCoder.encoder.mapping "[{stream: \"status_updates\", pcp: 5, vlan: 30}]"
config "*.criticalSensor.bridging.streamIdentifier.identifier.mapping +" "[{stream: \"sensor_monitoring\", packetFilter: expr(has(udp) && udp.destPort == 7000)}]"
config "*.criticalSensor.bridging.streamCoder.encoder.mapping +" "[{stream: \"sensor_monitoring\", pcp: 4, vlan: 25}]"
config *.display.bridging.streamIdentifier.identifier.mapping "[{stream: \"display_data\", packetFilter: expr(has(udp) && udp.destPort == 6003)}]"
config *.display.bridging.streamCoder.encoder.mapping "[{stream: \"display_data\", pcp: 3, vlan: 20}]"
config *.attackerExternal.bridging.streamIdentifier.identifier.mapping "[{stream: \"external_attack\", packetFilter: expr(has(udp) && udp.destPort == 5000)}]"
config *.attackerExternal.bridging.streamCoder.encoder.mapping "[{stream: \"external_attack\", pcp: 0, vlan: 40}]"
config *.compromisedNode.bridging.streamIdentifier.identifier.mapping "[{stream: \"compromised_attack\", packetFilter: expr(has(udp) && (udp.destPort == 8888 || udp.destPort == 5000))}]"
config *.compromisedNode.bridging.streamCoder.encoder.mapping "[{stream: \"compromised_attack\", pcp: 0, vlan: 41}]"
config *.criticalSensor.hasOutgoingStreams true
config *.display.hasOutgoingStreams true
config *.attackerExternal.hasOutgoingStreams true
config *.compromisedNode.hasOutgoingStreams true
config *.mainECU.hasOutgoingStreams true
config *.masterClock.hasOutgoingStreams true
config *.masterClock.bridging.streamIdentifier.identifier.mapping "[{stream: \"gptp\", packetFilter: expr(etherType == 0x88f7)}]"
config *.masterClock.bridging.streamCoder.encoder.mapping "[{stream: \"gptp\", pcp: 6, vlan: 0}]"
config "*.criticalSensor.bridging.streamIdentifier.identifier.mapping +" "[{stream: \"default_stream\", packetFilter: expr(true)}]"
config "*.criticalSensor.bridging.streamCoder.encoder.mapping        +" "[{stream: \"default_stream\",  pcp: 0, vlan: 0}]"
config "*.display.bridging.streamIdentifier.identifier.mapping       +" "[{stream: \"default_stream\", packetFilter: expr(true)}]"
config "*.display.bridging.streamCoder.encoder.mapping               +" "[{stream: \"default_stream\",  pcp: 0, vlan: 0}]"
config "*.attackerExternal.bridging.streamIdentifier.identifier.mapping +" "[{stream: \"default_stream\", packetFilter: expr(true)}]"
config "*.attackerExternal.bridging.streamCoder.encoder.mapping         +" "[{stream: \"default_stream\",  pcp: 0, vlan: 0}]"
config "*.compromisedNode.bridging.streamIdentifier.identifier.mapping  +" "[{stream: \"default_stream\", packetFilter: expr(true)}]"
config "*.compromisedNode.bridging.streamCoder.encoder.mapping          +" "[{stream: \"default_stream\",  pcp: 0, vlan: 0}]"
config "*.mainECU.bridging.streamIdentifier.identifier.mapping          +" "[{stream: \"default_stream\", packetFilter: expr(true)}]"
config "*.mainECU.bridging.streamCoder.encoder.mapping                  +" "[{stream: \"default_stream\",  pcp: 0, vlan: 0}]"
config *.centralSwitch.eth[*].macLayer.queue.numTrafficClasses 8
config *.centralSwitch.eth[*].macLayer.queue.classifier.typename PcpClassifier
config *.centralSwitch.eth[*].macLayer.queue.classifier.pcpToGateIndex "[0, 1, 2, 3, 4, 5, 6, 7]"
config *.centralSwitch.eth[*].macLayer.queue.transmissionGate[*].typename PeriodicGate
config *.centralSwitch.eth[*].macLayer.queue.transmissionGate[7].durations "[250us, 250us]"
config *.centralSwitch.eth[*].macLayer.queue.transmissionGate[6].durations "[200us, 300us]"
config *.centralSwitch.eth[*].macLayer.queue.transmissionGate[5].durations "[150us, 350us]"
config *.centralSwitch.eth[*].macLayer.queue.transmissionGate[4].durations "[100us, 400us]"
config *.centralSwitch.eth[*].macLayer.queue.transmissionGate[3].durations "[100us, 400us]"
config *.centralSwitch.eth[*].macLayer.queue.transmissionGate[2].durations "[50us, 450us]"
config *.centralSwitch.eth[*].macLayer.queue.transmissionGate[1].durations "[50us, 450us]"
config *.centralSwitch.eth[*].macLayer.queue.transmissionGate[0].durations "[25us, 475us]"
config *.centralSwitch.hasStreamRedundancy false
config *.centralSwitch.hasIngressTrafficFiltering true
config *.centralSwitch.bridging.streamIdentifier.typename StreamIdentifierLayer
config *.centralSwitch.bridging.streamIdentifier.identifier.typename StreamIdentifier
config *.centralSwitch.hasEgressTrafficShaping true
config *.centralSwitch.hasStreamFiltering true
config *.centralSwitch.hasStreamPolicing true
config *.centralSwitch.bridging.streamFilter.ingress.meter[*].colorAware false
config **.app[*].endToEndDelay:vector.result-recording-modes all
config **.app[*].endToEndDelay:vector.vector-recording true
config **.app[*].endToEndDelay:histogram.result-recording-modes all
config **.bitrate:vector.result-recording-modes all
config **.bitrate:vector.vector-recording true
config **.throughput:vector.result-recording-modes all
config **.throughput:vector.vector-recording true
config **.datarate:vector.result-recording-modes all
config **.datarate:vector.vector-recording true
config **.queue.queueLength:vector.result-recording-modes all
config **.queue.queueLength:vector.vector-recording true
config **.queue.queueingTime:vector.result-recording-modes all
config **.queue.queueingTime:vector.vector-recording true
config **.queue.queueBitLength:vector.result-recording-modes all
config **.queue.queueBitLength:vector.vector-recording true
config **.packetDropped:count.result-recording-modes all
config **.packetDropped:vector.result-recording-modes all
config **.packetDropped:vector.vector-recording true
config **.packetSent:count.result-recording-modes all
config **.packetReceived:count.result-recording-modes all
config **.rxPkOk:count.result-recording-modes all
config **.rxPkOk:vector.result-recording-modes all
config **.txPk:count.result-recording-modes all
config **.txPk:vector.result-recording-modes all
config **.bridging.streamFilter.ingress.meter[*].committedConformingPackets:count.result-recording-modes all
config **.bridging.streamFilter.ingress.meter[*].committedConformingPackets:vector.result-recording-modes all
config **.bridging.streamFilter.ingress.meter[*].committedConformingPackets:vector.vector-recording true
config **.bridging.streamFilter.ingress.meter[*].committedNonConformingPackets:count.result-recording-modes all
config **.bridging.streamFilter.ingress.meter[*].committedNonConformingPackets:vector.result-recording-modes all
config **.bridging.streamFilter.ingress.meter[*].committedNonConformingPackets:vector.vector-recording true
config **.bridging.streamFilter.ingress.meter[*].excessConformingPackets:count.result-recording-modes all
config **.bridging.streamFilter.ingress.meter[*].excessConformingPackets:vector.result-recording-modes all
config **.bridging.streamFilter.ingress.meter[*].excessConformingPackets:vector.vector-recording true
config **.bridging.streamFilter.ingress.meter[*].packetFiltered:count.result-recording-modes all
config **.bridging.streamFilter.ingress.meter[*].packetFiltered:vector.result-recording-modes all
config **.bridging.streamFilter.ingress.meter[*].packetFiltered:vector.vector-recording true
config **.bridging.streamCoder.packetEncoded:count.result-recording-modes all
config **.bridging.streamCoder.packetDecoded:count.result-recording-modes all
config **.bridging.streamIdentifier.packetClassified:count.result-recording-modes all
config **.bridging.streamIdentifier.packetClassified:vector.result-recording-modes all
config **.bridging.streamIdentifier.packetClassified:vector.vector-recording true
config **.queue.transmissionGate[*].gateStateChanged:vector.result-recording-modes all
config **.queue.transmissionGate[*].gateStateChanged:vector.vector-recording true
config **.queue.transmissionSelectionAlgorithm[*].credit:vector.result-recording-modes all
config **.queue.transmissionSelectionAlgorithm[*].credit:vector.vector-recording true
config **.gptp.clockServo.offsetNanoseconds:vector.result-recording-modes all
config **.gptp.clockServo.offsetNanoseconds:vector.vector-recording true
config **.gptp.clockServo.driftPpm:vector.result-recording-modes all
config **.gptp.clockServo.driftPpm:vector.vector-recording true
config **.gptp.clockServo.rateRatio:vector.result-recording-modes all
config **.gptp.clockServo.rateRatio:vector.vector-recording true
config **.mac.txPk:count.result-recording-modes all
config **.mac.rxPkOk:count.result-recording-modes all
config **.mac.frameSequenceErrors:count.result-recording-modes all
config **.mac.alignmentErrors:count.result-recording-modes all
config **.phy.txPk:count.result-recording-modes all
config **.phy.rxPkOk:count.result-recording-modes all
config **.phy.symbolErrors:count.result-recording-modes all
config **.ipv4.routingTable.routeAdded:count.result-recording-modes all
config **.ipv4.routingTable.routeDeleted:count.result-recording-modes all
config **.udp.packetSent:count.result-recording-modes all
config **.udp.packetReceived:count.result-recording-modes all
config **.udp.passedUpPk:count.result-recording-modes all
config **.pcp0:count.result-recording-modes all
config **.pcp1:count.result-recording-modes all
config **.pcp2:count.result-recording-modes all
config **.pcp3:count.result-recording-modes all
config **.pcp4:count.result-recording-modes all
config **.pcp5:count.result-recording-modes all
config **.pcp6:count.result-recording-modes all
config **.pcp7:count.result-recording-modes all
config *.attackerExternal.numApps 0
config *.compromisedNode.numApps 0
config *.visualizer.typename IntegratedCanvasVisualizer
config *.visualizer.dataLinkVisualizer.displayLinks true
config *.visualizer.dataLinkVisualizer.activityLevel "\"protocol\""
config *.visualizer.dataLinkVisualizer.fadeOutMode "\"simulationTime\""
config *.visualizer.dataLinkVisualizer.fadeOutTime 0.2s
config *.visualizer.statisticVisualizer.displayStatistics true
config *.visualizer.statisticVisualizer.signalName "\"packetReceived\""
config *.visualizer.statisticVisualizer.sourceFilter "\"**.app[*]\""
config *.visualizer.statisticVisualizer.format "\"count\""
config *.dataCollector.outputFile "\"results_flat/tsn_signals_TimingAttack-#3.csv\""
config *.dataCollector.windowLength 1ms
config *.dataCollector.emitCSV true
config *.dataCollector.emitPCPBreakdowns false
config *.dataCollector.emitRaw false
config *.dataCollector.emitNDJSON false
config *.dataCollector.emitPerStreamRows true
config *.dataCollector.includeControlFramesInThroughput true
config *.dataCollector.emitZeroIfNoSamples false
config *.mainECU.numApps 4
config *.mainECU.app[3].typename UdpBasicApp
config *.mainECU.app[3].localPort 6100
config *.mainECU.app[3].destAddresses "\"display\""
config *.mainECU.app[3].destPort 6000
config *.mainECU.app[3].messageLength 256B
config *.mainECU.app[3].sendInterval 2ms
config *.mainECU.app[3].startTime 10ms
config *.mainECU.app[3].stopTime 0.5s
config *.mlInferenceEngine.modelPath "\"../ml_models/tsn_extended_fdeep.json\""
config *.mlInferenceEngine.normPath "\"../ml_models/tsn_extended_norm.json\""
config *.mlInferenceEngine.inferenceInterval 1ms
config *.mlInferenceEngine.anomalyThreshold 0.7
config result-dir results_flat
config output-scalar-file results_flat/TimingAttack-3.sca
config output-vector-file results_flat/TimingAttack-3.vec
config **.result-recording-modes default
config **.vector-recording false
config **.scalar-recording false

vector 0 MinimalAttackNetwork.masterClock.clock.oscillator driftRateChanged:vector ETV
attr interpolationmode sample-hold
attr recordingmode vector
attr title "Oscillator drift rate"
attr unit ppm
vector 1 MinimalAttackNetwork.masterClock.clock timeChanged:vector ETV
attr interpolationmode linear
attr recordingmode vector
attr title "Clock time"
vector 2 MinimalAttackNetwork.masterClock.ethernet.macHeaderInserter incomingPacketLengths:vector ETV
attr interpolationmode none
attr recordingmode vector
attr source "packetLength(merge(packetPushedIn, packetPulledIn))"
attr title "incoming packet lengths"
attr unit b
vector 3 MinimalAttackNetwork.masterClock.ethernet.macHeaderInserter incomingDataRate:vector ETV
attr interpolationmode linear
attr recordingmode vector
attr source "throughput(merge(packetPushedIn, packetPulledIn))"
attr title "incoming data rate"
attr unit bps
vector 4 MinimalAttackNetwork.masterClock.ethernet.macHeaderInserter outgoingPacketLengths:vector ETV
attr interpolationmode none
attr recordingmode vector
attr source "packetLength(merge(packetPushedOut, packetPulledOut))"
attr title "outgoing packet lengths"
attr unit b
vector 5 MinimalAttackNetwork.masterClock.ethernet.macHeaderInserter outgoingDataRate:vector ETV
attr interpolationmode linear
attr recordingmode vector
attr source "throughput(merge(packetPushedOut, packetPulledOut))"
attr title "outgoing data rate"
attr unit bps
vector 6 MinimalAttackNetwork.masterClock.ethernet.macHeaderInserter flowIncomingPacketLengths:vector ETV
attr interpolationmode none
attr recordingmode vector
attr source "packetLength(demuxFlow(merge(packetPushedIn, packetPulledIn)))"
attr title "flow specific incoming packet lengths"
attr unit b
vector 7 MinimalAttackNetwork.masterClock.ethernet.macHeaderInserter flowIncomingDataRate:vector ETV
attr interpolationmode linear
attr recordingmode vector
attr source "throughput(demuxFlow(merge(packetPushedIn, packetPulledIn)))"
attr title "flow specific incoming data rate"
attr unit bps
vector 8 MinimalAttackNetwork.masterClock.ethernet.macHeaderInserter flowOutgoingPacketLengths:vector ETV
attr interpolationmode none
attr recordingmode vector
attr source "packetLength(demuxFlow(merge(packetPushedOut, packetPulledOut)))"
attr title "flow specific outgoing packet lengths"
attr unit b
vector 9 MinimalAttackNetwork.masterClock.ethernet.macHeaderInserter flowOutgoingDataRate:vector ETV
attr interpolationmode linear
attr recordingmode vector
attr source "throughput(demuxFlow(merge(packetPushedOut, packetPulledOut)))"
attr title "flow specific outgoing data rate"
attr unit bps
vector 10 MinimalAttackNetwork.masterClock.ethernet.paddingInserter incomingPacketLengths:vector ETV
attr interpolationmode none
attr recordingmode vector
attr source "packetLength(merge(packetPushedIn, packetPulledIn))"
attr title "incoming packet lengths"
attr unit b
vector 11 MinimalAttackNetwork.masterClock.ethernet.paddingInserter incomingDataRate:vector ETV
attr interpolationmode linear
attr recordingmode vector
attr source "throughput(merge(packetPushedIn, packetPulledIn))"
attr title "incoming data rate"
attr unit bps
vector 12 MinimalAttackNetwork.masterClock.ethernet.paddingInserter outgoingPacketLengths:vector ETV
attr interpolationmode none
attr recordingmode vector
attr source "packetLength(merge(packetPushedOut, packetPulledOut))"
attr title "outgoing packet lengths"
attr unit b
vector 13 MinimalAttackNetwork.masterClock.ethernet.paddingInserter outgoingDataRate:vector ETV
attr interpolationmode linear
attr recordingmode vector
attr source "throughput(merge(packetPushedOut, packetPulledOut))"
attr title "outgoing data rate"
attr unit bps
vector 14 MinimalAttackNetwork.masterClock.ethernet.paddingInserter flowIncomingPacketLengths:vector ETV
attr interpolationmode none
attr recordingmode vector
attr source "packetLength(demuxFlow(merge(packetPushedIn, packetPulledIn)))"
attr title "flow specific incoming packet lengths"
attr unit b
vector 15 MinimalAttackNetwork.masterClock.ethernet.paddingInserter flowIncomingDataRate:vector ETV
attr interpolationmode linear
attr recordingmode vector
attr source "throughput(demuxFlow(merge(packetPushedIn, packetPulledIn)))"
attr title "flow specific incoming data rate"
attr unit bps
vector 16 MinimalAttackNetwork.masterClock.ethernet.paddingInserter flowOutgoingPacketLengths:vector ETV
attr interpolationmode none
attr recordingmode vector
attr source "packetLength(demuxFlow(merge(packetPushedOut, packetPulledOut)))"
attr title "flow specific outgoing packet lengths"
attr unit b
vector 17 MinimalAttackNetwork.masterClock.ethernet.paddingInserter flowOutgoingDataRate:vector ETV
attr interpolationmode linear
attr recordingmode vector
attr source "throughput(demuxFlow(merge(packetPushedOut, packetPulledOut)))"
attr title "flow specific outgoing data rate"
attr unit bps
vector 18 MinimalAttackNetwork.masterClock.ethernet.fcsInserter incomingPacketLengths:vector ETV
attr interpolationmode none
attr recordingmode vector
attr source "packetLength(merge(packetPushedIn, packetPulledIn))"
attr title "incoming packet lengths"
attr unit b
vector 19 MinimalAttackNetwork.masterClock.ethernet.fcsInserter incomingDataRate:vector ETV
attr interpolationmode linear
attr recordingmode vector
attr source "throughput(merge(packetPushedIn, packetPulledIn))"
attr title "incoming data rate"
attr unit bps
vector 20 MinimalAttackNetwork.masterClock.ethernet.fcsInserter outgoingPacketLengths:vector ETV
attr interpolationmode none
attr recordingmode vector
attr source "packetLength(merge(packetPushedOut, packetPulledOut))"
attr title "outgoing packet lengths"
attr unit b
vector 21 MinimalAttackNetwork.masterClock.ethernet.fcsInserter outgoingDataRate:vector ETV
attr interpolationmode linear
attr recordingmode vector
attr source "throughput(merge(packetPushedOut, packetPulledOut))"
attr title "outgoing data rate"
attr unit bps
vector 22 MinimalAttackNetwork.masterClock.ethernet.fcsInserter flowIncomingPacketLengths:vector ETV
attr interpolationmode none
attr recordingmode vector
attr source "packetLength(demuxFlow(merge(packetPushedIn, packetPulledIn)))"
attr title "flow specific incoming packet lengths"
attr unit b
vector 23 MinimalAttackNetwork.masterClock.ethernet.fcsInserter flowIncomingDataRate:vector ETV
attr interpolationmode linear
attr recordingmode vector
attr source "throughput(demuxFlow(merge(packetPushedIn, packetPulledIn)))"
attr title "flow specific incoming data rate"
attr unit bps
vector 24 MinimalAttackNetwork.masterClock.ethernet.fcsInserter flowOutgoingPacketLengths:vector ETV
attr interpolationmode none
attr recordingmode vector
attr source "packetLength(demuxFlow(merge(packetPushedOut, packetPulledOut)))"
attr title "flow specific outgoing packet lengths"
attr unit b
vector 25 MinimalAttackNetwork.masterClock.ethernet.fcsInserter flowOutgoingDataRate:vector ETV
attr interpolationmode linear
attr recordingmode vector
attr source "throughput(demuxFlow(merge(packetPushedOut, packetPulledOut)))"
attr title "flow specific outgoing data rate"
attr unit bps
vector 26 MinimalAttackNetwork.masterClock.ethernet.macHeaderChecker incomingPacketLengths:vector ETV
attr interpolationmode none
attr recordingmode vector
attr source "packetLength(merge(packetPushedIn, packetPulledIn))"
attr title "incoming packet lengths"
attr unit b
vector 27 MinimalAttackNetwork.masterClock.ethernet.macHeaderChecker incomingDataRate:vector ETV
attr interpolationmode linear
attr recordingmode vector
attr source "throughput(merge(packetPushedIn, packetPulledIn))"
attr title "incoming data rate"
attr unit bps
vector 28 MinimalAttackNetwork.masterClock.ethernet.macHeaderChecker outgoingPacketLengths:vector ETV
attr interpolationmode none
attr recordingmode vector
attr source "packetLength(merge(packetPushedOut, packetPulledOut))"
attr title "outgoing packet lengths"
attr unit b
vector 29 MinimalAttackNetwork.masterClock.ethernet.macHeaderChecker outgoingDataRate:vector ETV
attr interpolationmode linear
attr recordingmode vector
attr source "throughput(merge(packetPushedOut, packetPulledOut))"
attr title "outgoing data rate"
attr unit bps
vector 30 MinimalAttackNetwork.masterClock.ethernet.macHeaderChecker droppedPacketLengths:vector ETV
attr interpolationmode none
attr recordingmode vector
attr source packetLength(packetDropped)
attr title "dropped packet lengths"
attr unit b
vector 31 MinimalAttackNetwork.masterClock.ethernet.macHeaderChecker droppedDataRate:vector ETV
attr interpolationmode linear
attr recordingmode vector
attr source throughput(packetDropped)
attr title "dropped data rate"
attr unit bps
vector 32 MinimalAttackNetwork.masterClock.ethernet.macHeaderChecker flowIncomingPacketLengths:vector ETV
attr interpolationmode none
attr recordingmode vector
attr source "packetLength(demuxFlow(merge(packetPushedIn, packetPulledIn)))"
attr title "flow specific incoming packet lengths"
attr unit b
vector 33 MinimalAttackNetwork.masterClock.ethernet.macHeaderChecker flowIncomingDataRate:vector ETV
attr interpolationmode linear
attr recordingmode vector
attr source "throughput(demuxFlow(merge(packetPushedIn, packetPulledIn)))"
attr title "flow specific incoming data rate"
attr unit bps
vector 34 MinimalAttackNetwork.masterClock.ethernet.macHeaderChecker flowOutgoingPacketLengths:vector ETV
attr interpolationmode none
attr recordingmode vector
attr source "packetLength(demuxFlow(merge(packetPushedOut, packetPulledOut)))"
attr title "flow specific outgoing packet lengths"
attr unit b
vector 35 MinimalAttackNetwork.masterClock.ethernet.macHeaderChecker flowOutgoingDataRate:vector ETV
attr interpolationmode linear
attr recordingmode vector
attr source "throughput(demuxFlow(merge(packetPushedOut, packetPulledOut)))"
attr title "flow specific outgoing data rate"
attr unit bps
vector 36 MinimalAttackNetwork.masterClock.ethernet.macHeaderChecker flowDroppedPacketLengths:vector ETV
attr interpolationmode none
attr recordingmode vector
attr source packetLength(demuxFlow(packetDropped))
attr title "flow specific dropped packet lengths"
attr unit b
vector 37 MinimalAttackNetwork.masterClock.ethernet.macHeaderChecker flowDroppedDataRate:vector ETV
attr interpolationmode linear
attr recordingmode vector
attr source throughput(demuxFlow(packetDropped))
attr title "flow specific dropped data rate"
attr unit bps
vector 38 MinimalAttackNetwork.masterClock.ethernet.fcsChecker incomingPacketLengths:vector ETV
attr interpolationmode none
attr recordingmode vector
attr source "packetLength(merge(packetPushedIn, packetPulledIn))"
attr title "incoming packet lengths"
attr unit b
vector 39 MinimalAttackNetwork.masterClock.ethernet.fcsChecker incomingDataRate:vector ETV
attr interpolationmode linear
attr recordingmode vector
attr source "throughput(merge(packetPushedIn, packetPulledIn))"
attr title "incoming data rate"
attr unit bps
vector 40 MinimalAttackNetwork.masterClock.ethernet.fcsChecker outgoingPacketLengths:vector ETV
attr interpolationmode none
attr recordingmode vector
attr source "packetLength(merge(packetPushedOut, packetPulledOut))"
attr title "outgoing packet lengths"
attr unit b
vector 41 MinimalAttackNetwork.masterClock.ethernet.fcsChecker outgoingDataRate:vector ETV
attr interpolationmode linear
attr recordingmode vector
attr source "throughput(merge(packetPushedOut, packetPulledOut))"
attr title "outgoing data rate"
attr unit bps
vector 42 MinimalAttackNetwork.masterClock.ethernet.fcsChecker droppedPacketLengths:vector ETV
attr interpolationmode none
attr recordingmode vector
attr source packetLength(packetDropped)
attr title "dropped packet lengths"
attr unit b
vector 43 MinimalAttackNetwork.masterClock.ethernet.fcsChecker droppedDataRate:vector ETV
attr interpolationmode linear
attr recordingmode vector
attr source throughput(packetDropped)
attr title "dropped data rate"
attr unit bps
vector 44 MinimalAttackNetwork.masterClock.ethernet.fcsChecker flowIncomingPacketLengths:vector ETV
attr interpolationmode none
attr recordingmode vector
attr source "packetLength(demuxFlow(merge(packetPushedIn, packetPulledIn)))"
attr title "flow specific incoming packet lengths"
attr unit b
vector 45 MinimalAttackNetwork.masterClock.ethernet.fcsChecker flowIncomingDataRate:vector ETV
attr interpolationmode linear
attr recordingmode vector
attr source "throughput(demuxFlow(merge(packetPushedIn, packetPulledIn)))"
attr title "flow specific incoming data rate"
attr unit bps
vector 46 MinimalAttackNetwork.masterClock.ethernet.fcsChecker flowOutgoingPacketLengths:vector ETV
attr interpolationmode none
attr recordingmode vector
attr source "packetLength(demuxFlow(merge(packetPushedOut, packetPulledOut)))"
attr title "flow specific outgoing packet lengths"
attr unit b
vector 47 MinimalAttackNetwork.masterClock.ethernet.fcsChecker flowOutgoingDataRate:vector ETV
attr interpolationmode linear
attr recordingmode vector
attr source "throughput(demuxFlow(merge(packetPushedOut, packetPulledOut)))"
attr title "flow specific outgoing data rate"
attr unit bps
vector 48 MinimalAttackNetwork.masterClock.ethernet.fcsChecker flowDroppedPacketLengths:vector ETV
attr interpolationmode none
attr recordingmode vector
attr source packetLength(demuxFlow(packetDropped))
attr title "flow specific dropped packet lengths"
attr unit b
vector 49 MinimalAttackNetwork.masterClock.ethernet.fcsChecker flowDroppedDataRate:vector ETV
attr interpolationmode linear
attr recordingmode vector
attr source throughput(demuxFlow(packetDropped))
attr title "flow specific dropped data rate"
attr unit bps
vector 50 MinimalAttackNetwork.masterClock.lo[0].lo rcvdPkFromHl:vector(packetBytes) ETV
attr interpolationmode none
attr recordingmode vector(packetBytes)
attr source packetReceivedFromUpper
attr title "packets received from higher layer, packetBytes"
vector 51 MinimalAttackNetwork.masterClock.lo[0].lo passedUpPk:vector(packetBytes) ETV
attr interpolationmode none
attr recordingmode vector(packetBytes)
attr source packetSentToUpper
attr title "packets passed to higher layer, packetBytes"
vector 52 MinimalAttackNetwork.masterClock.lo[0] packetDropInterfaceDown:vector(packetBytes) ETV
attr interpolationmode none
attr recordingmode vector(packetBytes)
attr source packetDropReasonIsInterfaceDown(packetDropped)
attr title "packet drops: interface down, packetBytes"
vector 53 MinimalAttackNetwork.masterClock.lo[0] packetDropNoCarrier:vector(packetBytes) ETV
attr interpolationmode none
attr recordingmode vector(packetBytes)
attr source packetDropReasonIsNoCarrier(packetDropped)
attr title "packet drops: no carrier, packetBytes"
vector 54 MinimalAttackNetwork.masterClock.eth[0].macLayer.queue queueLength:vector ETV
attr autoWarmupFilter false
attr interpolationmode sample-hold
attr recordingmode vector
attr source "warmup(atomic(constant0(packetPushEnded) + count(packetPushStarted) - count(packetPulled) - count(packetRemoved) - count(packetDropped)))"
attr title "queue length"
attr unit pk
vector 55 MinimalAttackNetwork.masterClock.eth[0].macLayer.queue queueBitLength:vector ETV
attr autoWarmupFilter false
attr interpolationmode sample-hold
attr recordingmode vector
attr source "warmup(atomic(constant0(packetPushEnded) + sum(packetLength(packetPushStarted)) - sum(packetLength(packetPulled)) - sum(packetLength(packetRemoved)) - sum(packetLength(packetDropped))))"
attr title "queue bit length"
attr unit b
vector 56 MinimalAttackNetwork.masterClock.eth[0].macLayer.queue queueingTime:vector ETV
attr interpolationmode none
attr recordingmode vector
attr source queueingTime(packetPulled)
attr title "queueing times"
attr unit s
vector 57 MinimalAttackNetwork.masterClock.eth[0].macLayer.queue incomingPacketLengths:vector ETV
attr interpolationmode none
attr recordingmode vector
attr source packetLength(packetPushStarted)
attr title "incoming packet lengths"
attr unit b
vector 58 MinimalAttackNetwork.masterClock.eth[0].macLayer.queue incomingDataRate:vector ETV
attr interpolationmode linear
attr recordingmode vector
attr source throughput(packetPushStarted)
attr title "incoming datarate"
attr unit bps
vector 59 MinimalAttackNetwork.masterClock.eth[0].macLayer.queue outgoingPacketLengths:vector ETV
attr interpolationmode none
attr recordingmode vector
attr source packetLength(packetPulled)
attr title "outgoing packet lengths"
attr unit b
vector 60 MinimalAttackNetwork.masterClock.eth[0].macLayer.queue outgoingDataRate:vector ETV
attr interpolationmode linear
attr recordingmode vector
attr source throughput(packetPulled)
attr title "outgoing datarate"
attr unit bps
vector 61 MinimalAttackNetwork.masterClock.eth[0].macLayer.queue droppedPacketLengthsQueueOverflow:vector ETV
attr interpolationmode none
attr recordingmode vector
attr source packetLength(packetDropReasonIsQueueOverflow(packetDropped))
attr title "dropped packet lengths: queue overflow"
attr unit b
vector 62 MinimalAttackNetwork.masterClock.eth[0].macLayer.queue flowQueueingTime:vector ETV
attr interpolationmode none
attr recordingmode vector
attr source queueingTime(demuxFlow(packetPulled))
attr title "flow queueing times"
attr unit s
vector 63 MinimalAttackNetwork.masterClock.eth[0].macLayer.queue flowIncomingDataRate:vector ETV
attr interpolationmode linear
attr recordingmode vector
attr source throughput(flowPacketLength(demuxFlow(packetPushStarted)))
attr title "flow specific incoming data rate"
attr unit bps
vector 64 MinimalAttackNetwork.masterClock.eth[0].macLayer.queue flowOutgoingDataRate:vector ETV
attr interpolationmode linear
attr recordingmode vector
attr source throughput(flowPacketLength(demuxFlow(packetPulled)))
attr title "flow specific outgoing data rate"
attr unit bps
vector 65 MinimalAttackNetwork.masterClock.eth[0].macLayer.server incomingPacketLengths:vector ETV
attr interpolationmode none
attr recordingmode vector
attr source packetLength(packetPulled)
attr title "incoming packet lengths"
attr unit b
vector 66 MinimalAttackNetwork.masterClock.eth[0].macLayer.server incomingDataRate:vector ETV
attr interpolationmode linear
attr recordingmode vector
attr source throughput(packetPulled)
attr title "incoming datarate"
attr unit bps
vector 67 MinimalAttackNetwork.masterClock.eth[0].macLayer.server outgoingPacketLengths:vector ETV
attr interpolationmode none
attr recordingmode vector
attr source packetLength(packetPushed)
attr title "outgoing packet lengths"
attr unit b
vector 68 MinimalAttackNetwork.masterClock.eth[0].macLayer.server outgoingDataRate:vector ETV
attr interpolationmode linear
attr recordingmode vector
attr source throughput(packetPushed)
attr title "outgoing datarate"
attr unit bps
vector 69 MinimalAttackNetwork.masterClock.eth[0].macLayer.outboundEmitter incomingPacketLengths:vector ETV
attr interpolationmode none
attr recordingmode vector
attr source "packetLength(merge(packetPushedIn, packetPulledIn))"
attr title "incoming packet lengths"
attr unit b
vector 70 MinimalAttackNetwork.masterClock.eth[0].macLayer.outboundEmitter incomingDataRate:vector ETV
attr interpolationmode linear
attr recordingmode vector
attr source "throughput(merge(packetPushedIn, packetPulledIn))"
attr title "incoming data rate"
attr unit bps
vector 71 MinimalAttackNetwork.masterClock.eth[0].macLayer.outboundEmitter outgoingPacketLengths:vector ETV
attr interpolationmode none
attr recordingmode vector
attr source "packetLength(merge(packetPushedOut, packetPulledOut))"
attr title "outgoing packet lengths"
attr unit b
vector 72 MinimalAttackNetwork.masterClock.eth[0].macLayer.outboundEmitter outgoingDataRate:vector ETV
attr interpolationmode linear
attr recordingmode vector
attr source "throughput(merge(packetPushedOut, packetPulledOut))"
attr title "outgoing data rate"
attr unit bps
vector 73 MinimalAttackNetwork.masterClock.eth[0].macLayer.outboundEmitter flowIncomingPacketLengths:vector ETV
attr interpolationmode none
attr recordingmode vector
attr source "packetLength(demuxFlow(merge(packetPushedIn, packetPulledIn)))"
attr title "flow specific incoming packet lengths"
attr unit b
vector 74 MinimalAttackNetwork.masterClock.eth[0].macLayer.outboundEmitter flowIncomingDataRate:vector ETV
attr interpolationmode linear
attr recordingmode vector
attr source "throughput(demuxFlow(merge(packetPushedIn, packetPulledIn)))"
attr title "flow specific incoming data rate"
attr unit bps
vector 75 MinimalAttackNetwork.masterClock.eth[0].macLayer.outboundEmitter flowOutgoingPacketLengths:vector ETV
attr interpolationmode none
attr recordingmode vector
attr source "packetLength(demuxFlow(merge(packetPushedOut, packetPulledOut)))"
attr title "flow specific outgoing packet lengths"
attr unit b
vector 76 MinimalAttackNetwork.masterClock.eth[0].macLayer.outboundEmitter flowOutgoingDataRate:vector ETV
attr interpolationmode linear
attr recordingmode vector
attr source "throughput(demuxFlow(merge(packetPushedOut, packetPulledOut)))"
attr title "flow specific outgoing data rate"
attr unit bps
vector 77 MinimalAttackNetwork.masterClock.eth[0].macLayer.fcsChecker incomingPacketLengths:vector ETV
attr interpolationmode none
attr recordingmode vector
attr source "packetLength(merge(packetPushedIn, packetPulledIn))"
attr title "incoming packet lengths"
attr unit b
vector 78 MinimalAttackNetwork.masterClock.eth[0].macLayer.fcsChecker incomingDataRate:vector ETV
attr interpolationmode linear
attr recordingmode vector
attr source "throughput(merge(packetPushedIn, packetPulledIn))"
attr title "incoming data rate"
attr unit bps
vector 79 MinimalAttackNetwork.masterClock.eth[0].macLayer.fcsChecker outgoingPacketLengths:vector ETV
attr interpolationmode none
attr recordingmode vector
attr source "packetLength(merge(packetPushedOut, packetPulledOut))"
attr title "outgoing packet lengths"
attr unit b
vector 80 MinimalAttackNetwork.masterClock.eth[0].macLayer.fcsChecker outgoingDataRate:vector ETV
attr interpolationmode linear
attr recordingmode vector
attr source "throughput(merge(packetPushedOut, packetPulledOut))"
attr title "outgoing data rate"
attr unit bps
vector 81 MinimalAttackNetwork.masterClock.eth[0].macLayer.fcsChecker droppedPacketLengths:vector ETV
attr interpolationmode none
attr recordingmode vector
attr source packetLength(packetDropped)
attr title "dropped packet lengths"
attr unit b
vector 82 MinimalAttackNetwork.masterClock.eth[0].macLayer.fcsChecker droppedDataRate:vector ETV
attr interpolationmode linear
attr recordingmode vector
attr source throughput(packetDropped)
attr title "dropped data rate"
attr unit bps
vector 83 MinimalAttackNetwork.masterClock.eth[0].macLayer.fcsChecker flowIncomingPacketLengths:vector ETV
attr interpolationmode none
attr recordingmode vector
attr source "packetLength(demuxFlow(merge(packetPushedIn, packetPulledIn)))"
attr title "flow specific incoming packet lengths"
attr unit b
vector 84 MinimalAttackNetwork.masterClock.eth[0].macLayer.fcsChecker flowIncomingDataRate:vector ETV
attr interpolationmode linear
attr recordingmode vector
attr source "throughput(demuxFlow(merge(packetPushedIn, packetPulledIn)))"
attr title "flow specific incoming data rate"
attr unit bps
vector 85 MinimalAttackNetwork.masterClock.eth[0].macLayer.fcsChecker flowOutgoingPacketLengths:vector ETV
attr interpolationmode none
attr recordingmode vector
attr source "packetLength(demuxFlow(merge(packetPushedOut, packetPulledOut)))"
attr title "flow specific outgoing packet lengths"
attr unit b
vector 86 MinimalAttackNetwork.masterClock.eth[0].macLayer.fcsChecker flowOutgoingDataRate:vector ETV
attr interpolationmode linear
attr recordingmode vector
attr source "throughput(demuxFlow(merge(packetPushedOut, packetPulledOut)))"
attr title "flow specific outgoing data rate"
attr unit bps
vector 87 MinimalAttackNetwork.masterClock.eth[0].macLayer.fcsChecker flowDroppedPacketLengths:vector ETV
attr interpolationmode none
attr recordingmode vector
attr source packetLength(demuxFlow(packetDropped))
attr title "flow specific dropped packet lengths"
attr unit b
vector 88 MinimalAttackNetwork.masterClock.eth[0].macLayer.fcsChecker flowDroppedDataRate:vector ETV
attr interpolationmode linear
attr recordingmode vector
attr source throughput(demuxFlow(packetDropped))
attr title "flow specific dropped data rate"
attr unit bps
vector 89 MinimalAttackNetwork.masterClock.eth[0].macLayer.inboundEmitter incomingPacketLengths:vector ETV
attr interpolationmode none
attr recordingmode vector
attr source "packetLength(merge(packetPushedIn, packetPulledIn))"
attr title "incoming packet lengths"
attr unit b
vector 90 MinimalAttackNetwork.masterClock.eth[0].macLayer.inboundEmitter incomingDataRate:vector ETV
attr interpolationmode linear
attr recordingmode vector
attr source "throughput(merge(packetPushedIn, packetPulledIn))"
attr title "incoming data rate"
attr unit bps
vector 91 MinimalAttackNetwork.masterClock.eth[0].macLayer.inboundEmitter outgoingPacketLengths:vector ETV
attr interpolationmode none
attr recordingmode vector
attr source "packetLength(merge(packetPushedOut, packetPulledOut))"
attr title "outgoing packet lengths"
attr unit b
vector 92 MinimalAttackNetwork.masterClock.eth[0].macLayer.inboundEmitter outgoingDataRate:vector ETV
attr interpolationmode linear
attr recordingmode vector
attr source "throughput(merge(packetPushedOut, packetPulledOut))"
attr title "outgoing data rate"
attr unit bps
vector 93 MinimalAttackNetwork.masterClock.eth[0].macLayer.inboundEmitter flowIncomingPacketLengths:vector ETV
attr interpolationmode none
attr recordingmode vector
attr source "packetLength(demuxFlow(merge(packetPushedIn, packetPulledIn)))"
attr title "flow specific incoming packet lengths"
attr unit b
vector 94 MinimalAttackNetwork.masterClock.eth[0].macLayer.inboundEmitter flowIncomingDataRate:vector ETV
attr interpolationmode linear
attr recordingmode vector
attr source "throughput(demuxFlow(merge(packetPushedIn, packetPulledIn)))"
attr title "flow specific incoming data rate"
attr unit bps
vector 95 MinimalAttackNetwork.masterClock.eth[0].macLayer.inboundEmitter flowOutgoingPacketLengths:vector ETV
attr interpolationmode none
attr recordingmode vector
attr source "packetLength(demuxFlow(merge(packetPushedOut, packetPulledOut)))"
attr title "flow specific outgoing packet lengths"
attr unit b
vector 96 MinimalAttackNetwork.masterClock.eth[0].macLayer.inboundEmitter flowOutgoingDataRate:vector ETV
attr interpolationmode linear
attr recordingmode vector
attr source "throughput(demuxFlow(merge(packetPushedOut, packetPulledOut)))"
attr title "flow specific outgoing data rate"
attr unit bps
vector 97 MinimalAttackNetwork.masterClock.eth[0].phyLayer.phyHeaderInserter incomingPacketLengths:vector ETV
attr interpolationmode none
attr recordingmode vector
attr source "packetLength(merge(packetPushedIn, packetPulledIn))"
attr title "incoming packet lengths"
attr unit b
vector 98 MinimalAttackNetwork.masterClock.eth[0].phyLayer.phyHeaderInserter incomingDataRate:vector ETV
attr interpolationmode linear
attr recordingmode vector
attr source "throughput(merge(packetPushedIn, packetPulledIn))"
attr title "incoming data rate"
attr unit bps
vector 99 MinimalAttackNetwork.masterClock.eth[0].phyLayer.phyHeaderInserter outgoingPacketLengths:vector ETV
attr interpolationmode none
attr recordingmode vector
attr source "packetLength(merge(packetPushedOut, packetPulledOut))"
attr title "outgoing packet lengths"
attr unit b
vector 100 MinimalAttackNetwork.masterClock.eth[0].phyLayer.phyHeaderInserter outgoingDataRate:vector ETV
attr interpolationmode linear
attr recordingmode vector
attr source "throughput(merge(packetPushedOut, packetPulledOut))"
attr title "outgoing data rate"
attr unit bps
vector 101 MinimalAttackNetwork.masterClock.eth[0].phyLayer.phyHeaderInserter flowIncomingPacketLengths:vector ETV
attr interpolationmode none
attr recordingmode vector
attr source "packetLength(demuxFlow(merge(packetPushedIn, packetPulledIn)))"
attr title "flow specific incoming packet lengths"
attr unit b
vector 102 MinimalAttackNetwork.masterClock.eth[0].phyLayer.phyHeaderInserter flowIncomingDataRate:vector ETV
attr interpolationmode linear
attr recordingmode vector
attr source "throughput(demuxFlow(merge(packetPushedIn, packetPulledIn)))"
attr title "flow specific incoming data rate"
attr unit bps
vector 103 MinimalAttackNetwork.masterClock.eth[0].phyLayer.phyHeaderInserter flowOutgoingPacketLengths:vector ETV
attr interpolationmode none
attr recordingmode vector
attr source "packetLength(demuxFlow(merge(packetPushedOut, packetPulledOut)))"
attr title "flow specific outgoing packet lengths"
attr unit b
vector 104 MinimalAttackNetwork.masterClock.eth[0].phyLayer.phyHeaderInserter flowOutgoingDataRate:vector ETV
attr interpolationmode linear
attr recordingmode vector
attr source "throughput(demuxFlow(merge(packetPushedOut, packetPulledOut)))"
attr title "flow specific outgoing data rate"
attr unit bps
vector 105 MinimalAttackNetwork.masterClock.eth[0].phyLayer.interFrameGapInserter interpacketGap:vector ETV
attr interpolationmode sample-hold
attr recordingmode vector
attr source "count(interpacketGapStarted) - count(interpacketGapEnded)"
attr title "interpacket gap state"
attr type int
vector 106 MinimalAttackNetwork.masterClock.eth[0].phyLayer.outboundEmitter incomingPacketLengths:vector ETV
attr interpolationmode none
attr recordingmode vector
attr source "packetLength(merge(packetPushedIn, packetPulledIn))"
attr title "incoming packet lengths"
attr unit b
vector 107 MinimalAttackNetwork.masterClock.eth[0].phyLayer.outboundEmitter incomingDataRate:vector ETV
attr interpolationmode linear
attr recordingmode vector
attr source "throughput(merge(packetPushedIn, packetPulledIn))"
attr title "incoming data rate"
attr unit bps
vector 108 MinimalAttackNetwork.masterClock.eth[0].phyLayer.outboundEmitter outgoingPacketLengths:vector ETV
attr interpolationmode none
attr recordingmode vector
attr source "packetLength(merge(packetPushedOut, packetPulledOut))"
attr title "outgoing packet lengths"
attr unit b
vector 109 MinimalAttackNetwork.masterClock.eth[0].phyLayer.outboundEmitter outgoingDataRate:vector ETV
attr interpolationmode linear
attr recordingmode vector
attr source "throughput(merge(packetPushedOut, packetPulledOut))"
attr title "outgoing data rate"
attr unit bps
vector 110 MinimalAttackNetwork.masterClock.eth[0].phyLayer.outboundEmitter flowIncomingPacketLengths:vector ETV
attr interpolationmode none
attr recordingmode vector
attr source "packetLength(demuxFlow(merge(packetPushedIn, packetPulledIn)))"
attr title "flow specific incoming packet lengths"
attr unit b
vector 111 MinimalAttackNetwork.masterClock.eth[0].phyLayer.outboundEmitter flowIncomingDataRate:vector ETV
attr interpolationmode linear
attr recordingmode vector
attr source "throughput(demuxFlow(merge(packetPushedIn, packetPulledIn)))"
attr title "flow specific incoming data rate"
attr unit bps
vector 112 MinimalAttackNetwork.masterClock.eth[0].phyLayer.outboundEmitter flowOutgoingPacketLengths:vector ETV
attr interpolationmode none
attr recordingmode vector
attr source "packetLength(demuxFlow(merge(packetPushedOut, packetPulledOut)))"
attr title "flow specific outgoing packet lengths"
attr unit b
vector 113 MinimalAttackNetwork.masterClock.eth[0].phyLayer.outboundEmitter flowOutgoingDataRate:vector ETV
attr interpolationmode linear
attr recordingmode vector
attr source "throughput(demuxFlow(merge(packetPushedOut, packetPulledOut)))"
attr title "flow specific outgoing data rate"
attr unit bps
vector 114 MinimalAttackNetwork.masterClock.eth[0].phyLayer.transmitter transmitting:vector ETV
attr interpolationmode sample-hold
attr recordingmode vector
attr source "count(transmissionStarted) - count(transmissionEnded)"
attr title "transmitting state"
attr type int
vector 115 MinimalAttackNetwork.masterClock.eth[0].phyLayer.transmitter throughput:vector ETV
attr interpolationmode linear
attr recordingmode vector
attr source throughput(transmissionEnded)
attr title throughput
attr unit bps
vector 116 MinimalAttackNetwork.masterClock.eth[0].phyLayer.transmitter utilization:vector ETV
attr interpolationmode linear
attr recordingmode vector
attr source "100 * utilization(count(transmissionStarted) - count(transmissionEnded))"
attr title utilization
attr unit %
vector 117 MinimalAttackNetwork.masterClock.eth[0].phyLayer.transmitter transmissionTime:vector ETV
attr interpolationmode none
attr recordingmode vector
attr source packetDuration(transmissionEnded)
attr title "transmission time"
attr unit s
vector 118 MinimalAttackNetwork.masterClock.eth[0].phyLayer.transmitter flowTransmissionTime:vector ETV
attr interpolationmode none
attr recordingmode vector
attr source packetDuration(demuxFlow(transmissionEnded))
attr title "flow transmission time"
attr unit s
vector 119 MinimalAttackNetwork.masterClock.eth[0].phyLayer.phyHeaderChecker incomingPacketLengths:vector ETV
attr interpolationmode none
attr recordingmode vector
attr source "packetLength(merge(packetPushedIn, packetPulledIn))"
attr title "incoming packet lengths"
attr unit b
vector 120 MinimalAttackNetwork.masterClock.eth[0].phyLayer.phyHeaderChecker incomingDataRate:vector ETV
attr interpolationmode linear
attr recordingmode vector
attr source "throughput(merge(packetPushedIn, packetPulledIn))"
attr title "incoming data rate"
attr unit bps
vector 121 MinimalAttackNetwork.masterClock.eth[0].phyLayer.phyHeaderChecker outgoingPacketLengths:vector ETV
attr interpolationmode none
attr recordingmode vector
attr source "packetLength(merge(packetPushedOut, packetPulledOut))"
attr title "outgoing packet lengths"
attr unit b
vector 122 MinimalAttackNetwork.masterClock.eth[0].phyLayer.phyHeaderChecker outgoingDataRate:vector ETV
attr interpolationmode linear
attr recordingmode vector
attr source "throughput(merge(packetPushedOut, packetPulledOut))"
attr title "outgoing data rate"
attr unit bps
vector 123 MinimalAttackNetwork.masterClock.eth[0].phyLayer.phyHeaderChecker droppedPacketLengths:vector ETV
attr interpolationmode none
attr recordingmode vector
attr source packetLength(packetDropped)
attr title "dropped packet lengths"
attr unit b
vector 124 MinimalAttackNetwork.masterClock.eth[0].phyLayer.phyHeaderChecker droppedDataRate:vector ETV
attr interpolationmode linear
attr recordingmode vector
attr source throughput(packetDropped)
attr title "dropped data rate"
attr unit bps
vector 125 MinimalAttackNetwork.masterClock.eth[0].phyLayer.phyHeaderChecker flowIncomingPacketLengths:vector ETV
attr interpolationmode none
attr recordingmode vector
attr source "packetLength(demuxFlow(merge(packetPushedIn, packetPulledIn)))"
attr title "flow specific incoming packet lengths"
attr unit b
vector 126 MinimalAttackNetwork.masterClock.eth[0].phyLayer.phyHeaderChecker flowIncomingDataRate:vector ETV
attr interpolationmode linear
attr recordingmode vector
attr source "throughput(demuxFlow(merge(packetPushedIn, packetPulledIn)))"
attr title "flow specific incoming data rate"
attr unit bps
vector 127 MinimalAttackNetwork.masterClock.eth[0].phyLayer.phyHeaderChecker flowOutgoingPacketLengths:vector ETV
attr interpolationmode none
attr recordingmode vector
attr source "packetLength(demuxFlow(merge(packetPushedOut, packetPulledOut)))"
attr title "flow specific outgoing packet lengths"
attr unit b
vector 128 MinimalAttackNetwork.masterClock.eth[0].phyLayer.phyHeaderChecker flowOutgoingDataRate:vector ETV
attr interpolationmode linear
attr recordingmode vector
attr source "throughput(demuxFlow(merge(packetPushedOut, packetPulledOut)))"
attr title "flow specific outgoing data rate"
attr unit bps
vector 129 MinimalAttackNetwork.masterClock.eth[0].phyLayer.phyHeaderChecker flowDroppedPacketLengths:vector ETV
attr interpolationmode none
attr recordingmode vector
attr source packetLength(demuxFlow(packetDropped))
attr title "flow specific dropped packet lengths"
attr unit b
vector 130 MinimalAttackNetwork.masterClock.eth[0].phyLayer.phyHeaderChecker flowDroppedDataRate:vector ETV
attr interpolationmode linear
attr recordingmode vector
attr source throughput(demuxFlow(packetDropped))
attr title "flow specific dropped data rate"
attr unit bps
vector 131 MinimalAttackNetwork.masterClock.eth[0].phyLayer.inboundEmitter incomingPacketLengths:vector ETV
attr interpolationmode none
attr recordingmode vector
attr source "packetLength(merge(packetPushedIn, packetPulledIn))"
attr title "incoming packet lengths"
attr unit b
vector 132 MinimalAttackNetwork.masterClock.eth[0].phyLayer.inboundEmitter incomingDataRate:vector ETV
attr interpolationmode linear
attr recordingmode vector
attr source "throughput(merge(packetPushedIn, packetPulledIn))"
attr title "incoming data rate"
attr unit bps
vector 133 MinimalAttackNetwork.masterClock.eth[0].phyLayer.inboundEmitter outgoingPacketLengths:vector ETV
attr interpolationmode none
attr recordingmode vector
attr source "packetLength(merge(packetPushedOut, packetPulledOut))"
attr title "outgoing packet lengths"
attr unit b
vector 134 MinimalAttackNetwork.masterClock.eth[0].phyLayer.inboundEmitter outgoingDataRate:vector ETV
attr interpolationmode linear
attr recordingmode vector
attr source "throughput(merge(packetPushedOut, packetPulledOut))"
attr title "outgoing data rate"
attr unit bps
vector 135 MinimalAttackNetwork.masterClock.eth[0].phyLayer.inboundEmitter flowIncomingPacketLengths:vector ETV
attr interpolationmode none
attr recordingmode vector
attr source "packetLength(demuxFlow(merge(packetPushedIn, packetPulledIn)))"
attr title "flow specific incoming packet lengths"
attr unit b
vector 136 MinimalAttackNetwork.masterClock.eth[0].phyLayer.inboundEmitter flowIncomingDataRate:vector ETV
attr interpolationmode linear
attr recordingmode vector
attr source "throughput(demuxFlow(merge(packetPushedIn, packetPulledIn)))"
attr title "flow specific incoming data rate"
attr unit bps
vector 137 MinimalAttackNetwork.masterClock.eth[0].phyLayer.inboundEmitter flowOutgoingPacketLengths:vector ETV
attr interpolationmode none
attr recordingmode vector
attr source "packetLength(demuxFlow(merge(packetPushedOut, packetPulledOut)))"
attr title "flow specific outgoing packet lengths"
attr unit b
vector 138 MinimalAttackNetwork.masterClock.eth[0].phyLayer.inboundEmitter flowOutgoingDataRate:vector ETV
attr interpolationmode linear
attr recordingmode vector
attr source "throughput(demuxFlow(merge(packetPushedOut, packetPulledOut)))"
attr title "flow specific outgoing data rate"
attr unit bps
vector 139 MinimalAttackNetwork.masterClock.eth[0].phyLayer.receiver throughput:vector ETV
attr interpolationmode linear
attr recordingmode vector
attr source throughput(receptionEnded)
attr title throughput
attr unit bps
vector 140 MinimalAttackNetwork.masterClock.eth[0].phyLayer.receiver receptionTime:vector ETV
attr interpolationmode none
attr recordingmode vector
attr source packetDuration(receptionEnded)
attr title "reception time"
attr unit s
vector 141 MinimalAttackNetwork.masterClock.eth[0].phyLayer.receiver flowReceptionTime:vector ETV
attr interpolationmode none
attr recordingmode vector
attr source packetDuration(demuxFlow(receptionEnded))
attr title "flow reception time"
attr unit s
vector 142 MinimalAttackNetwork.masterClock.eth[0] packetDropInterfaceDown:vector(packetBytes) ETV
attr interpolationmode none
attr recordingmode vector(packetBytes)
attr source packetDropReasonIsInterfaceDown(packetDropped)
attr title "packet drops: interface down, packetBytes"
vector 143 MinimalAttackNetwork.masterClock.eth[0] packetDropNoCarrier:vector(packetBytes) ETV
attr interpolationmode none
attr recordingmode vector(packetBytes)
attr source packetDropReasonIsNoCarrier(packetDropped)
attr title "packet drops: no carrier, packetBytes"
vector 144 MinimalAttackNetwork.masterClock.ipv4.ip packetDropAddressResolutionFailed:vector(packetBytes) ETV
attr interpolationmode none
attr recordingmode vector(packetBytes)
attr source packetDropReasonIsAddressResolutionFailed(packetDropped)
attr title "packet drop: address resolution failed, packetBytes"
vector 145 MinimalAttackNetwork.masterClock.ipv4.ip packetDropHopLimitReached:vector(packetBytes) ETV
attr interpolationmode none
attr recordingmode vector(packetBytes)
attr source packetDropReasonIsHopLimitReached(packetDropped)
attr title "packet drop: hop limit reached, packetBytes"
vector 146 MinimalAttackNetwork.masterClock.ipv4.ip packetDropForwardingDisabled:vector(packetBytes) ETV
attr interpolationmode none
attr recordingmode vector(packetBytes)
attr source packetDropReasonIsForwardingDisabled(packetDropped)
attr title "packet drop: forwarding disabled, packetBytes"
vector 147 MinimalAttackNetwork.masterClock.ipv4.ip packetDropNoInterfaceFound:vector(packetBytes) ETV
attr interpolationmode none
attr recordingmode vector(packetBytes)
attr source packetDropReasonIsNoInterfaceFound(packetDropped)
attr title "packet drop: no interface found, packetBytes"
vector 148 MinimalAttackNetwork.masterClock.ipv4.ip packetDropNoRouteFound:vector(packetBytes) ETV
attr interpolationmode none
attr recordingmode vector(packetBytes)
attr source packetDropReasonIsNoRouteFound(packetDropped)
attr title "packet drop: no route found, packetBytes"
vector 149 MinimalAttackNetwork.masterClock.ipv4.ip packetDropUndefined:vector(packetBytes) ETV
attr interpolationmode none
attr recordingmode vector(packetBytes)
attr source packetDropReasonIsUndefined(packetDropped)
attr title "packet drop: undefined, packetBytes"
vector 150 MinimalAttackNetwork.masterClock.udp packetSent:vector(packetBytes) ETV
attr interpolationmode none
attr recordingmode vector(packetBytes)
attr source packetSent
attr title "packets sent, packetBytes"
vector 151 MinimalAttackNetwork.masterClock.udp packetReceived:vector(packetBytes) ETV
attr interpolationmode none
attr recordingmode vector(packetBytes)
attr source packetReceived
attr title "packets received, packetBytes"
vector 152 MinimalAttackNetwork.masterClock.udp passedUpPk:vector(count) ETV
attr interpolationmode none
attr recordingmode vector(count)
attr source packetSentToUpper
attr title "packets passed up, count"
vector 153 MinimalAttackNetwork.masterClock.udp droppedPkWrongPort:vector(count) ETV
attr interpolationmode none
attr recordingmode vector(count)
attr source packetDropReasonIsNoPortFound(packetDropped)
attr title "packets dropped (wrong port), count"
vector 154 MinimalAttackNetwork.masterClock.udp droppedPkBadChecksum:vector(count) ETV
attr interpolationmode none
attr recordingmode vector(count)
attr source packetDropReasonIsIncorrectlyReceived(packetDropped)
attr title "packets dropped (checksum error), count"
vector 155 MinimalAttackNetwork.masterClock.gptp localTime:vector ETV
attr interpolationmode linear
attr recordingmode vector
vector 156 MinimalAttackNetwork.masterClock.gptp timeDifference:vector ETV
attr interpolationmode linear
attr recordingmode vector
vector 157 MinimalAttackNetwork.masterClock.gptp rateRatio:vector ETV
attr interpolationmode sample-hold
attr recordingmode vector
vector 158 MinimalAttackNetwork.masterClock.gptp peerDelay:vector ETV
attr interpolationmode sample-hold
attr recordingmode vector
vector 159 MinimalAttackNetwork.masterClock.gptp packetDropNotAddressedToUs:vector(packetBytes) ETV
attr interpolationmode none
attr recordingmode vector(packetBytes)
attr source packetDropReasonIsNotAddressedToUs(packetDropped)
attr title "packet drop: not addressed to us, packetBytes"
vector 160 MinimalAttackNetwork.centralSwitch.clock.oscillator driftRateChanged:vector ETV
attr interpolationmode sample-hold
attr recordingmode vector
attr title "Oscillator drift rate"
attr unit ppm
vector 161 MinimalAttackNetwork.centralSwitch.clock timeChanged:vector ETV
attr interpolationmode linear
attr recordingmode vector
attr title "Clock time"
vector 162 MinimalAttackNetwork.centralSwitch.gptp localTime:vector ETV
attr interpolationmode linear
attr recordingmode vector
vector 163 MinimalAttackNetwork.centralSwitch.gptp timeDifference:vector ETV
attr interpolationmode linear
attr recordingmode vector
vector 164 MinimalAttackNetwork.centralSwitch.gptp rateRatio:vector ETV
attr interpolationmode sample-hold
attr recordingmode vector
vector 165 MinimalAttackNetwork.centralSwitch.gptp peerDelay:vector ETV
attr interpolationmode sample-hold
attr recordingmode vector
vector 166 MinimalAttackNetwork.centralSwitch.gptp packetDropNotAddressedToUs:vector(packetBytes) ETV
attr interpolationmode none
attr recordingmode vector(packetBytes)
attr source packetDropReasonIsNotAddressedToUs(packetDropped)
attr title "packet drop: not addressed to us, packetBytes"
vector 167 MinimalAttackNetwork.centralSwitch.bridging.directionReverser.reverser incomingPacketLengths:vector ETV
attr interpolationmode none
attr recordingmode vector
attr source "packetLength(merge(packetPushedIn, packetPulledIn))"
attr title "incoming packet lengths"
attr unit b
vector 168 MinimalAttackNetwork.centralSwitch.bridging.directionReverser.reverser incomingDataRate:vector ETV
attr interpolationmode linear
attr recordingmode vector
attr source "throughput(merge(packetPushedIn, packetPulledIn))"
attr title "incoming data rate"
attr unit bps
vector 169 MinimalAttackNetwork.centralSwitch.bridging.directionReverser.reverser outgoingPacketLengths:vector ETV
attr interpolationmode none
attr recordingmode vector
attr source "packetLength(merge(packetPushedOut, packetPulledOut))"
attr title "outgoing packet lengths"
attr unit b
vector 170 MinimalAttackNetwork.centralSwitch.bridging.directionReverser.reverser outgoingDataRate:vector ETV
attr interpolationmode linear
attr recordingmode vector
attr source "throughput(merge(packetPushedOut, packetPulledOut))"
attr title "outgoing data rate"
attr unit bps
vector 171 MinimalAttackNetwork.centralSwitch.bridging.directionReverser.reverser flowIncomingPacketLengths:vector ETV
attr interpolationmode none
attr recordingmode vector
attr source "packetLength(demuxFlow(merge(packetPushedIn, packetPulledIn)))"
attr title "flow specific incoming packet lengths"
attr unit b
vector 172 MinimalAttackNetwork.centralSwitch.bridging.directionReverser.reverser flowIncomingDataRate:vector ETV
attr interpolationmode linear
attr recordingmode vector
attr source "throughput(demuxFlow(merge(packetPushedIn, packetPulledIn)))"
attr title "flow specific incoming data rate"
attr unit bps
vector 173 MinimalAttackNetwork.centralSwitch.bridging.directionReverser.reverser flowOutgoingPacketLengths:vector ETV
attr interpolationmode none
attr recordingmode vector
attr source "packetLength(demuxFlow(merge(packetPushedOut, packetPulledOut)))"
attr title "flow specific outgoing packet lengths"
attr unit b
vector 174 MinimalAttackNetwork.centralSwitch.bridging.directionReverser.reverser flowOutgoingDataRate:vector ETV
attr interpolationmode linear
attr recordingmode vector
attr source "throughput(demuxFlow(merge(packetPushedOut, packetPulledOut)))"
attr title "flow specific outgoing data rate"
attr unit bps
vector 175 MinimalAttackNetwork.centralSwitch.bridging.directionReverser.join packetLengths:vector ETV
attr interpolationmode none
attr recordingmode vector
attr source "packetLength(merge(packetPushed, packetPulled))"
attr title "packet lengths"
attr unit b
vector 176 MinimalAttackNetwork.centralSwitch.bridging.directionReverser.join dataRate:vector ETV
attr interpolationmode linear
attr recordingmode vector
attr source "throughput(merge(packetPushed, packetPulled))"
attr title "data rate"
attr unit bps
vector 177 MinimalAttackNetwork.centralSwitch.bridging.streamIdentifier.identifier incomingPacketLengths:vector ETV
attr interpolationmode none
attr recordingmode vector
attr source "packetLength(merge(packetPushedIn, packetPulledIn))"
attr title "incoming packet lengths"
attr unit b
vector 178 MinimalAttackNetwork.centralSwitch.bridging.streamIdentifier.identifier incomingDataRate:vector ETV
attr interpolationmode linear
attr recordingmode vector
attr source "throughput(merge(packetPushedIn, packetPulledIn))"
attr title "incoming data rate"
attr unit bps
vector 179 MinimalAttackNetwork.centralSwitch.bridging.streamIdentifier.identifier outgoingPacketLengths:vector ETV
attr interpolationmode none
attr recordingmode vector
attr source "packetLength(merge(packetPushedOut, packetPulledOut))"
attr title "outgoing packet lengths"
attr unit b
vector 180 MinimalAttackNetwork.centralSwitch.bridging.streamIdentifier.identifier outgoingDataRate:vector ETV
attr interpolationmode linear
attr recordingmode vector
attr source "throughput(merge(packetPushedOut, packetPulledOut))"
attr title "outgoing data rate"
attr unit bps
vector 181 MinimalAttackNetwork.centralSwitch.bridging.streamIdentifier.identifier flowIncomingPacketLengths:vector ETV
attr interpolationmode none
attr recordingmode vector
attr source "packetLength(demuxFlow(merge(packetPushedIn, packetPulledIn)))"
attr title "flow specific incoming packet lengths"
attr unit b
vector 182 MinimalAttackNetwork.centralSwitch.bridging.streamIdentifier.identifier flowIncomingDataRate:vector ETV
attr interpolationmode linear
attr recordingmode vector
attr source "throughput(demuxFlow(merge(packetPushedIn, packetPulledIn)))"
attr title "flow specific incoming data rate"
attr unit bps
vector 183 MinimalAttackNetwork.centralSwitch.bridging.streamIdentifier.identifier flowOutgoingPacketLengths:vector ETV
attr interpolationmode none
attr recordingmode vector
attr source "packetLength(demuxFlow(merge(packetPushedOut, packetPulledOut)))"
attr title "flow specific outgoing packet lengths"
attr unit b
vector 184 MinimalAttackNetwork.centralSwitch.bridging.streamIdentifier.identifier flowOutgoingDataRate:vector ETV
attr interpolationmode linear
attr recordingmode vector
attr source "throughput(demuxFlow(merge(packetPushedOut, packetPulledOut)))"
attr title "flow specific outgoing data rate"
attr unit bps
vector 185 MinimalAttackNetwork.centralSwitch.bridging.streamFilter.ingress.classifier packetLengths:vector ETV
attr interpolationmode none
attr recordingmode vector
attr source packetLength(packetPushed)
attr title "packet lengths"
attr unit b
vector 186 MinimalAttackNetwork.centralSwitch.bridging.streamFilter.ingress.classifier dataRate:vector ETV
attr interpolationmode linear
attr recordingmode vector
attr source throughput(packetPushed)
attr title "data rate"
attr unit bps
vector 187 MinimalAttackNetwork.centralSwitch.bridging.streamFilter.ingress.gate[0] incomingPacketLengths:vector ETV
attr interpolationmode none
attr recordingmode vector
attr source "packetLength(merge(packetPushedIn, packetPulledIn))"
attr title "incoming packet lengths"
attr unit b
vector 188 MinimalAttackNetwork.centralSwitch.bridging.streamFilter.ingress.gate[0] incomingDataRate:vector ETV
attr interpolationmode linear
attr recordingmode vector
attr source "throughput(merge(packetPushedIn, packetPulledIn))"
attr title "incoming data rate"
attr unit bps
vector 189 MinimalAttackNetwork.centralSwitch.bridging.streamFilter.ingress.gate[0] outgoingPacketLengths:vector ETV
attr interpolationmode none
attr recordingmode vector
attr source "packetLength(merge(packetPushedOut, packetPulledOut))"
attr title "outgoing packet lengths"
attr unit b
vector 190 MinimalAttackNetwork.centralSwitch.bridging.streamFilter.ingress.gate[0] outgoingDataRate:vector ETV
attr interpolationmode linear
attr recordingmode vector
attr source "throughput(merge(packetPushedOut, packetPulledOut))"
attr title "outgoing data rate"
attr unit bps
vector 191 MinimalAttackNetwork.centralSwitch.bridging.streamFilter.ingress.gate[0] flowIncomingPacketLengths:vector ETV
attr interpolationmode none
attr recordingmode vector
attr source "packetLength(demuxFlow(merge(packetPushedIn, packetPulledIn)))"
attr title "flow specific incoming packet lengths"
attr unit b
vector 192 MinimalAttackNetwork.centralSwitch.bridging.streamFilter.ingress.gate[0] flowIncomingDataRate:vector ETV
attr interpolationmode linear
attr recordingmode vector
attr source "throughput(demuxFlow(merge(packetPushedIn, packetPulledIn)))"
attr title "flow specific incoming data rate"
attr unit bps
vector 193 MinimalAttackNetwork.centralSwitch.bridging.streamFilter.ingress.gate[0] flowOutgoingPacketLengths:vector ETV
attr interpolationmode none
attr recordingmode vector
attr source "packetLength(demuxFlow(merge(packetPushedOut, packetPulledOut)))"
attr title "flow specific outgoing packet lengths"
attr unit b
vector 194 MinimalAttackNetwork.centralSwitch.bridging.streamFilter.ingress.gate[0] flowOutgoingDataRate:vector ETV
attr interpolationmode linear
attr recordingmode vector
attr source "throughput(demuxFlow(merge(packetPushedOut, packetPulledOut)))"
attr title "flow specific outgoing data rate"
attr unit bps
vector 195 MinimalAttackNetwork.centralSwitch.bridging.streamFilter.ingress.gate[0] gateState:vector ETV
attr enum CLOSED,OPEN
attr interpolationmode sample-hold
attr recordingmode vector
attr source gateStateChanged
attr title "gate state"
attr type enum
vector 196 MinimalAttackNetwork.centralSwitch.bridging.streamFilter.ingress.gate[1] incomingPacketLengths:vector ETV
attr interpolationmode none
attr recordingmode vector
attr source "packetLength(merge(packetPushedIn, packetPulledIn))"
attr title "incoming packet lengths"
attr unit b
vector 197 MinimalAttackNetwork.centralSwitch.bridging.streamFilter.ingress.gate[1] incomingDataRate:vector ETV
attr interpolationmode linear
attr recordingmode vector
attr source "throughput(merge(packetPushedIn, packetPulledIn))"
attr title "incoming data rate"
attr unit bps
vector 198 MinimalAttackNetwork.centralSwitch.bridging.streamFilter.ingress.gate[1] outgoingPacketLengths:vector ETV
attr interpolationmode none
attr recordingmode vector
attr source "packetLength(merge(packetPushedOut, packetPulledOut))"
attr title "outgoing packet lengths"
attr unit b
vector 199 MinimalAttackNetwork.centralSwitch.bridging.streamFilter.ingress.gate[1] outgoingDataRate:vector ETV
attr interpolationmode linear
attr recordingmode vector
attr source "throughput(merge(packetPushedOut, packetPulledOut))"
attr title "outgoing data rate"
attr unit bps
vector 200 MinimalAttackNetwork.centralSwitch.bridging.streamFilter.ingress.gate[1] flowIncomingPacketLengths:vector ETV
attr interpolationmode none
attr recordingmode vector
attr source "packetLength(demuxFlow(merge(packetPushedIn, packetPulledIn)))"
attr title "flow specific incoming packet lengths"
attr unit b
vector 201 MinimalAttackNetwork.centralSwitch.bridging.streamFilter.ingress.gate[1] flowIncomingDataRate:vector ETV
attr interpolationmode linear
attr recordingmode vector
attr source "throughput(demuxFlow(merge(packetPushedIn, packetPulledIn)))"
attr title "flow specific incoming data rate"
attr unit bps
vector 202 MinimalAttackNetwork.centralSwitch.bridging.streamFilter.ingress.gate[1] flowOutgoingPacketLengths:vector ETV
attr interpolationmode none
attr recordingmode vector
attr source "packetLength(demuxFlow(merge(packetPushedOut, packetPulledOut)))"
attr title "flow specific outgoing packet lengths"
attr unit b
vector 203 MinimalAttackNetwork.centralSwitch.bridging.streamFilter.ingress.gate[1] flowOutgoingDataRate:vector ETV
attr interpolationmode linear
attr recordingmode vector
attr source "throughput(demuxFlow(merge(packetPushedOut, packetPulledOut)))"
attr title "flow specific outgoing data rate"
attr unit bps
vector 204 MinimalAttackNetwork.centralSwitch.bridging.streamFilter.ingress.gate[1] gateState:vector ETV
attr enum CLOSED,OPEN
attr interpolationmode sample-hold
attr recordingmode vector
attr source gateStateChanged
attr title "gate state"
attr type enum
vector 205 MinimalAttackNetwork.centralSwitch.bridging.streamFilter.ingress.gate[2] incomingPacketLengths:vector ETV
attr interpolationmode none
attr recordingmode vector
attr source "packetLength(merge(packetPushedIn, packetPulledIn))"
[...]
3144	243217	0.470222762247	0
3144	243239	0.470301159048	0
3144	243249	0.470342510826	0
3144	243259	0.470401405054	0
3144	243269	0.470427843226	0
3144	243345	0.470501152579	0
3144	243385	0.470597578225	0
3144	243413	0.470646711059	0
3144	243435	0.470694310366	0
3144	243457	0.470782601615	0
3144	243467	0.470874019352	0
3144	243477	0.470949856354	0
3144	243593	0.471015254059	0
3144	243699	0.47107621895	0
3144	243739	0.471155078897	0
3144	243749	0.471230066975	0
3144	243771	0.471280086565	0
3144	243781	0.47130709915	0
3144	243791	0.47136551998	0
3144	243801	0.471399586492	0
3144	243811	0.471430722762	0
3144	243821	0.471456833656	0
3144	243831	0.471476709694	0
3144	243957	0.47157541133	0
3144	243997	0.471653193907	0
3144	244007	0.471675421965	0
3144	244017	0.471692903878	0
3144	244039	0.471778649596	0
3144	244049	0.47183135562	0
3144	244059	0.471863767574	0
3144	244069	0.471887575314	0
3144	244079	0.471901164269	0
3144	244089	0.471983860184	0
3144	244218	0.472048768088	0
3144	244264	0.472120442307	0
3144	244286	0.472162224263	0
3144	244308	0.472251923723	0
3144	244318	0.472323692834	0
3144	244328	0.472389153463	0
3144	244338	0.472472140673	0
3144	244444	0.472569144194	0
3144	244484	0.472667062236	0
3144	244494	0.472742965582	0
3144	244516	0.472761738591	0
3144	244526	0.472790465363	0
3144	244536	0.472845537876	0
3144	244546	0.472885844878	0
3144	244556	0.472915892788	0
3144	244640	0.473005331794	0
3144	244731	0.473104824305	0
3144	244741	0.473143936087	0
3144	244763	0.473178635691	0
3144	244773	0.473207318329	0
3144	244783	0.473218038329	2.7025e-07
3144	244805	0.473257311695	0
3144	244815	0.473272463608	0
3144	244825	0.47333729682	0
3144	244835	0.473433728559	0
3144	244923	0.473529194864	0
3144	244933	0.473546004135	0
3144	244979	0.473633779896	0
3144	245001	0.473730728405	0
3144	245023	0.473755563808	0
3144	245033	0.47379492378	0
3144	245043	0.473879899567	0
3144	245053	0.473952405245	0
3144	245063	0.473986069188	0
3144	245147	0.474015685342	0
3144	245220	0.474081579257	0
3144	245260	0.474168508173	0
3144	245270	0.474192891652	0
3144	245292	0.474277431234	0
3144	245302	0.474345675237	0
3144	245312	0.474367078595	0
3144	245322	0.474442725419	0
3144	245332	0.474458721592	0
3144	245446	0.474520132919	0
3144	245504	0.474606957691	0
3144	245526	0.47468114584	0
3144	245536	0.474718352453	0
3144	245558	0.47477103088	0
3144	245568	0.474855618054	0
3144	245578	0.474876519446	0
3144	245588	0.474951635772	0
3144	245735	0.475050297036	0
3144	245763	0.47513476958	0
3144	245785	0.475229410339	0
3144	245807	0.475270857301	0
3144	245817	0.475328847967	0
3144	245827	0.475382298335	0
3144	245837	0.475441366071	0
3144	245847	0.47548418897	0
3144	245935	0.475548504136	0
3144	245963	0.475588052301	0
3144	245991	0.475631404464	0
3144	246001	0.475643440465	0
3144	246023	0.475701021747	0
3144	246045	0.475766449225	0
3144	246055	0.47578095775	0
3144	246065	0.475844533575	0
3144	246075	0.475939901006	0
3144	246097	0.475993803209	0
3144	246232	0.476065106995	0
3144	246242	0.476088173655	0
3144	246270	0.47610957729	0
3144	246292	0.476154120957	0
3144	246302	0.476179947293	0
3144	246312	0.476206680692	0
3144	246334	0.47629635107	0
3144	246344	0.476328749796	0
3144	246354	0.476424567561	0
3144	246364	0.47647595842	0
3144	246470	0.47656217855	0
3144	246498	0.476639062053	0
3144	246520	0.47666910376	0
3144	246530	0.47670686802	0
3144	246540	0.476742565999	0
3144	246562	0.476833006018	0
3144	246572	0.476847108565	0
3144	246582	0.476944976926	0
3144	246592	0.476959507199	0
3144	246676	0.477012064838	0
3144	246731	0.477041960697	0
3144	246777	0.477132647453	0
3144	246799	0.477196222348	0
3144	246821	0.477272126668	0
3144	246831	0.477286150866	0
3144	246841	0.477299586425	0
3144	246851	0.477323491921	0
3144	246861	0.477375424167	0
3144	246871	0.477445641943	0
3144	246881	0.477456603678	0
3144	246891	0.477486175364	0
3144	246979	0.477541319549	0
3144	247007	0.477590906591	0
3144	247047	0.477661821148	0
3144	247057	0.477731057195	0
3144	247079	0.477763953153	0
3144	247089	0.477860205158	0
3144	247099	0.477918488291	0
3144	247109	0.477981189599	0
3144	247238	0.478049134251	0
3144	247266	0.478077111185	0
3144	247276	0.478099199003	0
3144	247304	0.47813344052	0
3144	247326	0.478159833918	0
3144	247336	0.478184095518	0
3144	247346	0.478196396934	0
3144	247368	0.478262525767	0
3144	247378	0.478284287251	0
3144	247388	0.478355419967	0
3144	247398	0.478434569105	0
3144	247408	0.478482824533	0
3144	247514	0.478581159495	0
3144	247542	0.478641645645	0
3144	247564	0.478740156128	0
3144	247586	0.478789663167	0
3144	247596	0.478813276578	0
3144	247606	0.478858056703	0
3144	247616	0.478954314511	0
3144	247729	0.479032928695	0
3144	247791	0.479118061263	0
3144	247801	0.479131479865	0
3144	247823	0.479179308952	0
3144	247833	0.47919285571	0
3144	247843	0.479236276757	0
3144	247865	0.479296814518	0
3144	247875	0.479385707281	0
3144	247885	0.479472896417	0
3144	247895	0.479485559855	0
3144	247971	0.479522942077	0
3144	248029	0.479619523383	0
3144	248039	0.479645718553	0
3144	248061	0.47966065615	0
3144	248071	0.479735851458	0
3144	248093	0.479828161289	0
3144	248103	0.479873446962	0
3144	248113	0.479916033713	0
3144	248123	0.47993498851	0
3144	248145	0.479999752008	0
3144	248273	0.480024514648	0
3144	248329	0.480099093114	0
3144	248357	0.480138522403	0
3144	248379	0.480185099968	0
3144	248389	0.480225614264	0
3144	248411	0.480274451698	0
3144	248421	0.480296531056	0
3144	248431	0.480367788509	0
3144	248441	0.480402726927	0
3144	248451	0.480419319458	0
3144	248461	0.480470759946	0
3144	248567	0.480557687329	0
3144	248595	0.480626657099	0
3144	248617	0.480657864805	0
3144	248627	0.480688502777	0
3144	248637	0.480718435504	0
3144	248659	0.480750758519	0
3144	248669	0.480778445826	0
3144	248679	0.480796349079	0
3144	248689	0.480860205324	0
3144	248699	0.480960131255	0
3144	248879	0.481038206912	0
3144	248939	0.481118920609	0
3144	248961	0.481206466187	0
3144	248971	0.481222659272	0
3144	248981	0.481233379272	7.6541e-08
3144	249003	0.481259606047	0
3144	249013	0.481332424987	0
3144	249023	0.481349671931	0
3144	249033	0.481390706232	0
3144	249043	0.481433153246	0
3144	249119	0.48150539502	0
3144	249179	0.481555241344	0
3144	249189	0.481581806821	0
3144	249229	0.481679546947	0
3144	249251	0.481774938587	0
3144	249261	0.481872312997	0
3144	249271	0.481966457451	0
3144	249281	0.481983051872	0
3144	249428	0.482061956116	0
3144	249456	0.482116296104	0
3144	249478	0.482193612935	0
3144	249500	0.482277813691	0
3144	249510	0.48231485356	0
3144	249520	0.482326635889	0
3144	249530	0.482349018142	0
3144	249540	0.482434427624	0
3144	249550	0.482462208823	0
3144	249626	0.482506716487	0
3144	249636	0.482524913424	0
3144	249676	0.482599400621	0
3144	249704	0.482619907146	0
3144	249726	0.482700711466	0
3144	249736	0.482736244073	0
3144	249758	0.482785016913	0
3144	249768	0.482797488073	0
3144	249778	0.482818166429	0
3144	249788	0.482883947239	0
3144	249798	0.482916882149	0
3144	249808	0.482955033608	0
3144	249818	0.482977204782	0
3144	249931	0.483035037839	0
3144	249975	0.483052347615	0
3144	250003	0.483141487503	0
3144	250025	0.483182655112	0
3144	250047	0.48328163875	0
3144	250057	0.483316453444	0
3144	250067	0.483373276687	0
3144	250077	0.483451544329	0
3144	250153	0.483508683808	0
3144	250193	0.483571273667	0
3144	250221	0.483618455476	0
3144	250243	0.483701938964	0
3144	250265	0.483754779274	0
3144	250275	0.483853466228	0
3144	250285	0.483890200875	0
3144	250295	0.483981791751	0
3144	250442	0.484065110025	0
3144	250482	0.484158274191	0
3144	250492	0.484245548013	0
3144	250514	0.484280775048	0
3144	250524	0.484323567388	0
3144	250534	0.484349780046	0
3144	250544	0.484446922139	0
3144	250554	0.484472022165	0
3144	250642	0.48453724976	0
3144	250670	0.484579873218	0
3144	250698	0.484601954704	0
3144	250720	0.48469021975	0
3144	250730	0.484726631277	0
3144	250752	0.484781495935	0
3144	250762	0.484851229424	0
3144	250772	0.484906674839	0
3144	250794	0.484998422692	0
3144	250929	0.485066257816	0
3144	250957	0.485130833454	0
3144	250979	0.485170966383	0
3144	250989	0.485221964331	0
3144	250999	0.485248311671	0
3144	251021	0.485331055941	0
3144	251031	0.485362969353	0
3144	251041	0.485402002276	0
3144	251051	0.485448163319	0
3144	251061	0.485483168434	0
3144	251137	0.48550737718	0
3144	251147	0.485521273143	0
3144	251187	0.485596057968	0
3144	251227	0.485652178764	0
3144	251237	0.485679680321	0
3144	251259	0.485767128841	0
3144	251269	0.485849696412	0
3144	251279	0.485882959054	0
3144	251289	0.485979552927	0
3144	251418	0.48604631891	0
3144	251446	0.486094299084	0
3144	251486	0.486172783765	0
3144	251496	0.486189247176	0
3144	251506	0.486217207892	0
3144	251528	0.486294576035	0
3144	251538	0.486375469351	0
3144	251548	0.486389604654	0
3144	251558	0.486435652019	0
3144	251568	0.486456602321	0
3144	251644	0.486508808007	0
3144	251654	0.486523249427	0
3144	251694	0.486591602867	0
3144	251722	0.486608094843	0
3144	251744	0.486673675404	0
3144	251754	0.486696258902	0
3144	251764	0.48671691003	0
3144	251786	0.486780251503	0
3144	251796	0.486799134147	0
3144	251806	0.486895374763	0
3144	251816	0.48693292401	0
3144	251826	0.486961866019	0
3144	251955	0.487046622069	0
3144	251983	0.487087739468	0
3144	252023	0.487160617464	0
3144	252033	0.487206932547	0
3144	252043	0.487247470905	0
3144	252065	0.487294106281	0
3144	252075	0.487335925596	0
3144	252085	0.487362695709	0
3144	252095	0.487448099343	0
3144	252183	0.487526344413	0
3144	252193	0.487543058293	0
3144	252239	0.487600798621	0
3144	252249	0.487615626614	0
3144	252259	0.487629086758	0
3144	252269	0.487641451702	0
3144	252291	0.487732508552	0
3144	252313	0.487777179804	0
3144	252323	0.487839773675	0
3144	252333	0.487892957323	0
3144	252343	0.487972632924	0
3144	252472	0.488049717951	0
3144	252518	0.488146656857	0
3144	252540	0.48816008858	0
3144	252550	0.488182688519	0
3144	252560	0.488249104794	0
3144	252582	0.488331509123	0
3144	252592	0.488364824956	0
3144	252602	0.488426615	0
3144	252678	0.488510959012	0
3144	252700	0.488537591653	0
3144	252746	0.488632318934	0
3144	252768	0.488662123643	0
3144	252778	0.488748445831	0
3144	252800	0.488767234207	0
3144	252810	0.488785384949	0
3144	252820	0.488846439451	0
3144	252830	0.488940626895	0
3144	252840	0.48896094937	0
3144	252850	0.488981474302	0
3144	252989	0.489022583719	0
3144	253045	0.48908598721	0
3144	253085	0.489177395223	0
3144	253095	0.489212904925	0
3144	253117	0.489263423427	0
3144	253127	0.489303477653	0
3144	253137	0.489399904528	0
3144	253147	0.489489720574	0
3144	253253	0.48957448843	0
3144	253281	0.489622183145	0
3144	253303	0.489666043992	0
3144	253313	0.489744965173	0
3144	253335	0.48982000775	0
3144	253345	0.489856056999	0
3144	253355	0.489872736627	0
3144	253365	0.489907223036	0
3144	253464	0.490006019812	0
3144	253561	0.490053240929	0
3144	253589	0.490142755549	0
3144	253611	0.490241601057	0
3144	253633	0.490305946466	0
3144	253643	0.490334352225	0
3144	253653	0.490370294274	0
3144	253663	0.490439618347	0
3144	253673	0.490478670224	0
3144	253779	0.490577476384	0
3144	253789	0.49059350088	0
3144	253829	0.490688012066	0
3144	253851	0.490760929389	0
3144	253861	0.490825694766	0
3144	253871	0.490842429999	0
3144	253881	0.490925392486	0
3144	253891	0.490954755343	0
3144	253978	0.491002349429	0
3144	254095	0.491042201714	0
3144	254123	0.491082766544	0
3144	254163	0.49118215903	0
3144	254173	0.491247300489	0
3144	254195	0.491340879527	0
3144	254205	0.491381772144	0
3144	254215	0.49147781124	0
3144	254323	0.491544244738	0
3144	254369	0.49161640201	0
3144	254391	0.491706260189	0
3144	254413	0.491789458884	0
3144	254423	0.49184682785	0
3144	254433	0.491876274736	0
3144	254443	0.491967800908	0
3144	254527	0.492004202979	0
3144	254566	0.492036462563	0
3144	254628	0.492115213191	0
3144	254650	0.492167896846	0
3144	254660	0.492247149448	0
3144	254682	0.492315843455	0
3144	254692	0.492331279905	0
3144	254702	0.492361408061	0
3144	254712	0.492446337817	0
3144	254722	0.492477935916	0
3144	254828	0.492561969585	0
3144	254856	0.492643817791	0
3144	254878	0.492661078401	0
3144	254888	0.492715829624	0
3144	254898	0.492740436375	0
3144	254920	0.492813718035	0
3144	254930	0.492858441435	0
3144	254940	0.492879194575	0
3144	254950	0.492921497197	0
3144	255034	0.493018351273	0
3144	255107	0.49307758519	0
3144	255135	0.493131432704	0
3144	255157	0.493179146813	0
3144	255179	0.493279014646	0
3144	255189	0.493307520354	0
3144	255199	0.493382781905	0
3144	255209	0.493407180898	0
3144	255285	0.493501366837	0
3144	255295	0.493512674607	0
3144	255317	0.493543246922	0
3144	255363	0.493624959194	0
3144	255385	0.493673853732	0
3144	255407	0.493750639069	0
3144	255417	0.493832768555	0
3144	255427	0.493895985635	0
3144	255437	0.493931642185	0
3144	255521	0.494009441	0
3144	255594	0.494089830121	0
3144	255634	0.494150950125	0
3144	255644	0.494167625412	0
3144	255654	0.494223627776	0
3144	255676	0.494260612046	0
3144	255686	0.494315953134	0
3144	255696	0.494375679945	0
3144	255706	0.494415919225	0
3144	255782	0.494506748622	0
3144	255804	0.494530897512	0
3144	255832	0.494578904006	0
3144	255872	0.494655724836	0
3144	255882	0.494667887741	0
3144	255892	0.494694917671	0
3144	255902	0.494712572695	0
3144	255924	0.494789249111	0
3144	255934	0.494820143407	0
3144	255944	0.494850506565	0
3144	255954	0.494914312559	0
3144	255964	0.494975897208	0
3144	256048	0.495016148904	0
3144	256121	0.495058085178	0
3144	256149	0.495120508784	0
3144	256171	0.495215711202	0
3144	256181	0.495238503287	0
3144	256203	0.495323137775	0
3144	256213	0.49536123191	0
3144	256223	0.495440077245	0
3144	256299	0.495510999577	0
3144	256339	0.49557381586	0
3144	256367	0.495612210436	0
3144	256389	0.495674452967	0
3144	256411	0.495755624426	0
3144	256421	0.495850581519	0
3144	256431	0.49593249578	0
3144	256441	0.495972120035	0
3144	256532	0.496019159498	0
3144	256598	0.496076615292	0
3144	256608	0.496089594451	0
3144	256648	0.496159240656	0
3144	256658	0.496209568642	0
3144	256668	0.496223194893	0
3144	256690	0.496275416964	0
3144	256700	0.496331093453	0
3144	256710	0.496371563304	0
3144	256720	0.496448063313	0
3144	256796	0.496520923478	0
3144	256836	0.496581898813	0
3144	256864	0.496613024742	0
3144	256886	0.496663498974	0
3144	256896	0.49671313692	0
3144	256918	0.496811906727	0
3144	256928	0.496899142026	0
3144	256938	0.496914706849	0
3144	256948	0.496980304995	0
3144	257061	0.497035301016	0
3144	257105	0.497089710897	0
3144	257133	0.497109784585	0
3144	257155	0.49719729623	0
3144	257177	0.497250890623	0
3144	257187	0.497301350842	0
3144	257197	0.497355931717	0
3144	257207	0.497407286884	0
3144	257217	0.497440124348	0
3144	257293	0.497524272247	0
3144	257351	0.497608292512	0
3144	257373	0.497674549294	0
3144	257383	0.497704524391	0
3144	257405	0.497762169924	0
3144	257415	0.497842069606	0
3144	257425	0.497883001912	0
3144	257435	0.497915490366	0
3144	257445	0.49795793949	0
3144	257455	0.497973271516	0
3144	257465	0.497987800189	0
3144	257612	0.498064806814	0
3144	257640	0.498142742155	0
3144	257662	0.498205657984	0
3144	257684	0.49825300103	0
3144	257694	0.498293816028	0
3144	257704	0.4983641001	0
3144	257714	0.498457819078	0
3144	257802	0.49854679518	0
3144	257830	0.498597185154	0
3144	257870	0.498659613645	0
3144	257880	0.498673555166	0
3144	257902	0.498750205241	0
3144	257912	0.498849469487	0
3144	257922	0.498868465797	0
3144	257932	0.498945289164	0
3144	258016	0.499014883627	0
3144	258089	0.499070612919	0
3144	258129	0.499153365583	0
3144	258139	0.499180599317	0
3144	258161	0.499253722307	0
3144	258171	0.499287362582	0
3144	258181	0.49934571104	0
3144	258191	0.499408929997	0
3144	258201	0.499434047063	0
3144	258223	0.499499786661	0
3144	258287	0.499514364119	0
3144	258327	0.49956127505	0
3144	258355	0.499624194699	0
3144	258377	0.499700012068	0
3144	258399	0.499792182807	0
3144	258409	0.499846291976	0
3144	258419	0.499861670674	0
3144	258429	0.499946712554	0
3144	258439	0.499974245499	0
3203	3104	0.00508048452	-196524.88325434
3203	5896	0.010726969455	17285089.949505
3203	8757	0.016256607609	17650341.176375
3203	11642	0.021926953034	17212355.27728
3203	14227	0.026905690513	19603363.385129
3203	17253	0.032962496473	16114103.810583
3203	20067	0.038497095502	17634520.493463
3203	22902	0.043753725081	18567030.1727
3203	25704	0.049367856779	17384700.83179
3203	28735	0.054925973122	17499453.77133
3203	31652	0.06061763296	17147897.586637
3203	34384	0.065954508749	18287853.017147
3203	37318	0.07150553212	17582343.556665
3203	40124	0.077024814394	17683458.673562
3203	42909	0.082234052441	18735945.472142
3203	45644	0.087968727897	17019271.752839
3203	48708	0.093953360029	16308437.652856
3203	51586	0.099624647571	17209495.952586
3203	54604	0.105036431461	17972631.941147
3203	57342	0.110417221172	18138601.439948
3203	60287	0.116059391531	17298307.883298
3203	63061	0.121412154935	18233572.57432
3203	65983	0.127315030933	16534313.109926
3203	68842	0.132999977492	17168147.314505
3203	71746	0.138626889109	17345216.460328
3203	74553	0.144015795681	18111280.775791
3203	77243	0.149410811269	18090772.567384
3203	80488	0.155272912164	16592003.744419
3203	83112	0.160408837603	19003391.143272
3203	85782	0.165365746514	19689690.037155
3203	88582	0.170815308384	17909696.656036
3203	91252	0.175930885567	19078981.023753
3203	94158	0.181280012415	18245968.5054
3203	96901	0.1869278411	17280977.423981
3203	99777	0.192202050193	18505144.236609
3203	102412	0.197307894953	19115348.113326
3203	105440	0.202856314113	17530038.231647
3203	108300	0.208592988379	17013341.78558
3203	111226	0.214075200294	17803033.066444
3203	113979	0.21968132136	17409541.972243
3203	116738	0.224951717184	18518533.191673
3203	119607	0.230523352009	17517300.22974
3203	122307	0.235591637507	19257005.162498
3203	125243	0.24116466078	17512936.016767
3203	127860	0.246358582142	18791197.093215
3203	130888	0.251914525351	17506298.452159
3203	133690	0.257479368722	17538678.718007
3203	136728	0.263494165143	16226650.607698
3203	139465	0.268670298826	18855772.663011
3203	142186	0.273941006481	18517437.579262
3203	145028	0.279528644716	17467129.38369
3203	147909	0.285010029867	17805718.31961
3203	150716	0.290536946591	17659032.128381
3203	153625	0.296386577709	16684812.773864
3203	156828	0.302078815861	17087127.664507
3203	159593	0.307902796621	16758297.120473
3203	162519	0.313461367895	17558468.748349
3203	165218	0.318642576686	18837303.018851
3203	168130	0.324280775271	17310493.507564
3203	170971	0.3300003267	17064275.26906
3203	173917	0.33575527065	16959331.11564
3203	176797	0.341499893818	16989800.226353
3203	179566	0.346919717547	18007965.73471
3203	182761	0.352674519248	16901364.296028
3203	185575	0.3583249447	17273035.602205
3203	188577	0.364139144311	16786489.376001
3203	191312	0.369660413913	17677093.682338
3203	194162	0.375023678	18197873.238533
3203	196940	0.380510005444	17789678.249471
3203	199670	0.385680073432	18877894.880016
3203	202576	0.391246084468	17534999.368262
3203	205331	0.396935837199	17153645.266206
3203	208333	0.402009391538	19170781.172548
3203	211161	0.407760051853	16971964.027404
3203	214187	0.413801371985	16155409.391902
3203	216977	0.419198216662	18084641.274919
3203	220003	0.425194919324	16275611.031788
3203	222791	0.430610560881	18021872.196074
3203	225640	0.436120871342	17712250.641915
3203	228487	0.441607492864	17788724.738648
3203	231289	0.447111666355	17731999.211069
3203	234281	0.452526398316	17962846.674692
3203	237093	0.458210384578	17171047.835302
3203	239978	0.463660685594	17907267.82126
3203	242832	0.46954702488	16580763.571025
3203	245818	0.475338607967	16852041.753329
3203	248442	0.480412486927	19235776.172319
3203	251238	0.485689440321	18495520.561348
3203	254114	0.491051961714	18200393.592351
3203	256887	0.496673258974	17362540.261747
3203	258535	0.5	17309432.730097
3227	34001	0.06503738	-348572.4819296
3227	70463	0.13603738	2210140.8450704
3227	106558	0.20503738	2249855.0724638
3227	143334	0.27603738	2210140.8450704
3227	179690	0.34703738	2210140.8450704
3227	215108	0.415508342	2249595.9674117
3227	251941	0.48703738	2210682.6041754
3227	258535	0.5	1981080.9851712

