version 3
run TimingAttack-1-20251002-16:01:14-81827
attr configname TimingAttack
attr datetime 20251002-16:01:14
attr datetimef 20251002-160114
attr experiment TimingAttack
attr inifile omnetpp.ini
attr iterationvars ""
attr iterationvarsd ""
attr iterationvarsf ""
attr measurement ""
attr network MinimalAttackNetwork
attr processid 81827
attr repetition 1
attr replication #1
attr resultdir results_flat
attr runnumber 1
attr seedset 1
config image-path ../../../../SharedRoom/omnetpp-ml-workspace/inet4.5/images
config extends Baseline
config description "Timing attack disrupting TSN synchronization (Label: timing_attack)"
config *.compromisedNode.clock.oscillator.driftRate 500ppm
config *.compromisedNode.numApps 1
config *.compromisedNode.app[0].typename UdpSourceApp
config *.compromisedNode.app[0].source.packetNameFormat "\"TIMING_ATTACK-%c\""
config *.compromisedNode.app[0].source.packetLength 64B
config *.compromisedNode.app[0].source.productionInterval "uniform(10us, 100us)"
config *.compromisedNode.app[0].source.startTime 50ms
config *.compromisedNode.app[0].source.stopTime 450ms
config *.compromisedNode.app[0].io.destAddress "\"mainECU\""
config *.compromisedNode.app[0].io.destPort 8888
config *.centralSwitch.eth[*].macLayer.queue.transmissionGate[6].initiallyOpen false
config *.centralSwitch.eth[*].macLayer.queue.transmissionGate[6].durations "[490us, 10us]"
config extends General
config description "Baseline: Normal TSN operation without attacks (Label: normal)"
config *.centralSwitch.bridging.streamFilter.ingress.hasDefaultPath false
config *.criticalSensor.numApps 2
config *.criticalSensor.app[0].typename UdpSourceApp
config *.criticalSensor.app[0].source.packetNameFormat "\"CRITICAL_SENSOR-%c\""
config *.criticalSensor.app[0].source.packetLength 175B
config *.criticalSensor.app[0].source.productionInterval 1ms
config *.criticalSensor.app[0].source.startTime 10ms
config *.criticalSensor.app[0].io.destAddress "\"mainECU\""
config *.criticalSensor.app[0].io.destPort 5000
config *.criticalSensor.app[1].typename UdpSourceApp
config *.criticalSensor.app[1].source.packetNameFormat "\"SENSOR_MON-%c\""
config *.criticalSensor.app[1].source.packetLength 150B
config *.criticalSensor.app[1].source.productionInterval 50ms
config *.criticalSensor.app[1].source.startTime 12ms
config *.criticalSensor.app[1].io.destAddress "\"display\""
config *.criticalSensor.app[1].io.destPort 7000
config *.display.numApps 3
config *.display.app[0].typename UdpSinkApp
config *.display.app[0].io.localPort 6000
config *.display.app[1].typename UdpSinkApp
config *.display.app[1].io.localPort 7000
config *.display.app[2].typename UdpSourceApp
config *.display.app[2].source.packetNameFormat "\"DISPLAY_UPDATE-%c\""
config *.display.app[2].source.packetLength 120B
config *.display.app[2].source.productionInterval 50ms
config *.display.app[2].source.startTime 15ms
config *.display.app[2].io.destAddress "\"mainECU\""
config *.display.app[2].io.destPort 6003
config *.mainECU.numApps 3
config *.mainECU.app[0].typename UdpSinkApp
config *.mainECU.app[0].io.localPort 5000
config *.mainECU.app[1].typename UdpSourceApp
config *.mainECU.app[1].source.packetNameFormat "\"STATUS_UPDATE-%c\""
config *.mainECU.app[1].source.packetLength 100B
config *.mainECU.app[1].source.productionInterval 10ms
config *.mainECU.app[1].source.startTime 20ms
config *.mainECU.app[1].io.destAddress "\"display\""
config *.mainECU.app[1].io.destPort 6000
config *.mainECU.app[2].typename UdpSinkApp
config *.mainECU.app[2].io.localPort 6003
config network MinimalAttackNetwork
config sim-time-limit 500ms
config description "Minimal TSN attack scenarios for ML training (500ms)"
config cmdenv-interactive false
config repeat 10
config seed-set 1
config *.dataCollector.outputFile "\"results_flat/tsn_signals_TimingAttack-#1.csv\""
config user-interface Cmdenv
config *.masterClock.eth[*].bitrate 100Mbps
config *.centralSwitch.eth[0].bitrate 100Mbps
config *.centralSwitch.eth[1].bitrate 1Gbps
config *.centralSwitch.eth[2].bitrate 100Mbps
config *.centralSwitch.eth[3].bitrate 100Mbps
config *.centralSwitch.eth[4].bitrate 100Mbps
config *.centralSwitch.eth[5].bitrate 100Mbps
config *.mainECU.eth[*].bitrate 1Gbps
config *.criticalSensor.eth[*].bitrate 100Mbps
config *.display.eth[*].bitrate 100Mbps
config *.attackerExternal.eth[*].bitrate 100Mbps
config *.compromisedNode.eth[*].bitrate 100Mbps
config *.configurator.config "xml(\"<config><interface hosts='**' address='10.0.0.x' netmask='255.255.255.0'/></config>\")"
config *.centralSwitch.typename TsnSwitch
config *.mainECU.typename TsnDevice
config *.criticalSensor.typename TsnDevice
config *.display.typename TsnDevice
config *.attackerExternal.typename TsnDevice
config *.compromisedNode.typename TsnDevice
config *.masterClock.typename TsnClock
config *.mainECU.hasUdp true
config *.criticalSensor.hasUdp true
config *.display.hasUdp true
config *.attackerExternal.hasUdp true
config *.compromisedNode.hasUdp true
config *.mainECU.hasIpv4 true
config *.criticalSensor.hasIpv4 true
config *.display.hasIpv4 true
config *.attackerExternal.hasIpv4 true
config *.compromisedNode.hasIpv4 true
config *.*.hasTimeSynchronization true
config *.*.clock.oscillator.driftRate "uniform(-20ppm, 20ppm)"
config **.gptp.syncInterval 10ms
config **.gptp.syncInitialOffset 1ms
config **.gptp.pdelayInterval 50ms
config **.gptp.pdelayInitialOffset 1ms
config *.masterClock.gptp.masterPorts "[\"eth0\"]"
config *.centralSwitch.gptp.slavePort "\"eth0\""
config *.centralSwitch.gptp.masterPorts "[\"eth1\",\"eth2\",\"eth3\",\"eth4\",\"eth5\"]"
config *.*.hasOutgoingStreams true
config *.centralSwitch.hasEgressTrafficShaping true
config *.centralSwitch.hasIncomingStreams true
config *.criticalSensor.bridging.streamIdentifier.typename StreamIdentifierLayer
config *.criticalSensor.bridging.streamCoder.typename StreamCoderLayer
config *.centralSwitch.bridging.streamCoder.encoder.mapping "[{stream: \"critical_control\", pcp: 7, vlan: 10}, {stream: \"status_updates\", pcp: 5, vlan: 30}, {stream: \"display_data\", pcp: 3, vlan: 20}, {stream: \"external_attack\", pcp: 0, vlan: 40}, {stream: \"compromised_attack\", pcp: 0, vlan: 41}]"
config *.centralSwitch.bridging.streamCoder.decoder.mapping "[{stream: \"critical_control\", pcp: 7, destination: \"mainECU\"}, {stream: \"status_updates\", pcp: 5, destination: \"mainECU\"}, {stream: \"display_data\", pcp: 3, destination: \"mainECU\"}, {stream: \"external_attack\", pcp: 0, source: \"attackerExternal\", destination: \"mainECU\"}, {stream: \"compromised_attack\", pcp: 0, source: \"compromisedNode\", destination: \"mainECU\"}]"
config "*.centralSwitch.bridging.streamCoder.decoder.mapping +" "[{pcp: 4, stream: \"sensor_monitoring\"}]"
config "*.centralSwitch.bridging.streamCoder.decoder.mapping +" "[{pcp: 4, destination: \"display\", stream: \"sensor_monitoring\"}]"
config "*.centralSwitch.bridging.streamCoder.decoder.mapping +" "[{stream: \"sensor_monitoring\", packetFilter: expr(has(udp) && udp.destPort == 7000)}]"
config "*.centralSwitch.bridging.streamCoder.encoder.mapping +" "[{stream: \"sensor_monitoring\", pcp: 4, vlan: 25}]"
config "*.centralSwitch.bridging.streamCoder.decoder.mapping +" "[{destination: \"01:80:C2:00:00:0E\", stream: \"gptp\"}]"
config "*.centralSwitch.bridging.streamCoder.decoder.mapping +" "[{packetFilter: expr(ethernetMacHeader.typeOrLength == 0x88f7), stream: \"gptp\"}]"
config "*.centralSwitch.bridging.streamCoder.decoder.mapping +" "[{pcp: 0, stream: \"default_stream\"}]"
config "*.centralSwitch.bridging.streamIdentifier.identifier.mapping +" "[{stream: \"gptp\", packetFilter: expr(has(etherTypeInd) && etherTypeInd.etherType == 0x88f7)}]"
config "*.centralSwitch.bridging.streamIdentifier.identifier.mapping +" "[{stream: \"gptp\", packetFilter: expr(ethernetMacHeader.typeOrLength == 0x88f7)}]"
config "*.centralSwitch.bridging.streamIdentifier.identifier.mapping +" "[{stream: \"gptp\", packetFilter: expr(etherType == 0x88f7)}]"
config "*.centralSwitch.bridging.streamIdentifier.identifier.mapping +" "[{stream: \"gptp\", packetFilter: expr(destAddress == \"01:80:C2:00:00:0E\")}]"
config *.centralSwitch.bridging.streamFilter.ingress.numStreams 8
config *.centralSwitch.bridging.streamFilter.ingress.classifier.mapping "{\"critical_control\": 0, \"status_updates\": 1, \"external_attack\": 2, \"compromised_attack\": 3, \"display_data\": 4, \"gptp\": 5, \"default_stream\": 6, \"sensor_monitoring\": 7}"
config *.centralSwitch.bridging.streamFilter.ingress.hasDefaultPath false
config *.centralSwitch.bridging.streamFilter.ingress.classifier.mode "\"both\""
config *.centralSwitch.bridging.streamFilter.ingress.classifier.defaultGateIndex 5
config *.centralSwitch.bridging.streamFilter.ingress.meter[*].typename DualRateThreeColorMeter
config *.centralSwitch.bridging.streamFilter.ingress.meter[0].display-name critical_control
config *.centralSwitch.bridging.streamFilter.ingress.meter[1].display-name status_updates
config *.centralSwitch.bridging.streamFilter.ingress.meter[2].display-name external_attack
config *.centralSwitch.bridging.streamFilter.ingress.meter[3].display-name compromised_attack
config *.centralSwitch.bridging.streamFilter.ingress.meter[4].display-name display_data
config *.centralSwitch.bridging.streamFilter.ingress.meter[0].committedInformationRate 10Mbps
config *.centralSwitch.bridging.streamFilter.ingress.meter[0].committedBurstSize 5kB
config *.centralSwitch.bridging.streamFilter.ingress.meter[0].excessInformationRate 5Mbps
config *.centralSwitch.bridging.streamFilter.ingress.meter[0].excessBurstSize 3kB
config *.centralSwitch.bridging.streamFilter.ingress.meter[1].committedInformationRate 5Mbps
config *.centralSwitch.bridging.streamFilter.ingress.meter[1].committedBurstSize 3kB
config *.centralSwitch.bridging.streamFilter.ingress.meter[1].excessInformationRate 2Mbps
config *.centralSwitch.bridging.streamFilter.ingress.meter[1].excessBurstSize 1kB
config *.centralSwitch.bridging.streamFilter.ingress.meter[2].committedInformationRate 50kbps
config *.centralSwitch.bridging.streamFilter.ingress.meter[2].committedBurstSize 256B
config *.centralSwitch.bridging.streamFilter.ingress.meter[2].excessInformationRate 25kbps
config *.centralSwitch.bridging.streamFilter.ingress.meter[2].excessBurstSize 128B
config *.centralSwitch.bridging.streamFilter.ingress.meter[3].committedInformationRate 50kbps
config *.centralSwitch.bridging.streamFilter.ingress.meter[3].committedBurstSize 256B
config *.centralSwitch.bridging.streamFilter.ingress.meter[3].excessInformationRate 25kbps
config *.centralSwitch.bridging.streamFilter.ingress.meter[3].excessBurstSize 128B
config *.centralSwitch.bridging.streamFilter.ingress.meter[4].committedInformationRate 2Mbps
config *.centralSwitch.bridging.streamFilter.ingress.meter[4].committedBurstSize 2kB
config *.centralSwitch.bridging.streamFilter.ingress.meter[4].excessInformationRate 1Mbps
config *.centralSwitch.bridging.streamFilter.ingress.meter[4].excessBurstSize 1kB
config *.centralSwitch.bridging.streamFilter.ingress.meter[5].display-name gptp
config *.centralSwitch.bridging.streamFilter.ingress.meter[5].committedInformationRate 1Mbps
config *.centralSwitch.bridging.streamFilter.ingress.meter[5].committedBurstSize 1kB
config *.centralSwitch.bridging.streamFilter.ingress.meter[5].excessInformationRate 1Mbps
config *.centralSwitch.bridging.streamFilter.ingress.meter[5].excessBurstSize 1kB
config *.centralSwitch.bridging.streamFilter.ingress.meter[6].display-name default_stream
config *.centralSwitch.bridging.streamFilter.ingress.meter[6].committedInformationRate 1bps
config *.centralSwitch.bridging.streamFilter.ingress.meter[6].committedBurstSize 1B
config *.centralSwitch.bridging.streamFilter.ingress.meter[6].excessInformationRate 1bps
config *.centralSwitch.bridging.streamFilter.ingress.meter[6].excessBurstSize 1B
config *.centralSwitch.bridging.streamFilter.ingress.meter[7].display-name sensor_monitoring
config *.centralSwitch.bridging.streamFilter.ingress.meter[7].committedInformationRate 3Mbps
config *.centralSwitch.bridging.streamFilter.ingress.meter[7].committedBurstSize 2kB
config *.centralSwitch.bridging.streamFilter.ingress.meter[7].excessInformationRate 1Mbps
config *.centralSwitch.bridging.streamFilter.ingress.meter[7].excessBurstSize 1kB
config *.centralSwitch.bridging.streamFilter.ingress.filter[5].labelFilter "\"green or yellow\""
config *.criticalSensor.bridging.streamIdentifier.identifier.mapping "[{stream: \"critical_control\", packetFilter: expr(has(udp) && udp.destPort == 5000)}]"
config *.criticalSensor.bridging.streamCoder.encoder.mapping "[{stream: \"critical_control\", pcp: 7, vlan: 10}]"
config *.mainECU.bridging.streamIdentifier.identifier.mapping "[{stream: \"status_updates\", packetFilter: expr(has(udp) && udp.destPort == 6000)}]"
config *.mainECU.bridging.streamCoder.encoder.mapping "[{stream: \"status_updates\", pcp: 5, vlan: 30}]"
config "*.criticalSensor.bridging.streamIdentifier.identifier.mapping +" "[{stream: \"sensor_monitoring\", packetFilter: expr(has(udp) && udp.destPort == 7000)}]"
config "*.criticalSensor.bridging.streamCoder.encoder.mapping +" "[{stream: \"sensor_monitoring\", pcp: 4, vlan: 25}]"
config *.display.bridging.streamIdentifier.identifier.mapping "[{stream: \"display_data\", packetFilter: expr(has(udp) && udp.destPort == 6003)}]"
config *.display.bridging.streamCoder.encoder.mapping "[{stream: \"display_data\", pcp: 3, vlan: 20}]"
config *.attackerExternal.bridging.streamIdentifier.identifier.mapping "[{stream: \"external_attack\", packetFilter: expr(has(udp) && udp.destPort == 5000)}]"
config *.attackerExternal.bridging.streamCoder.encoder.mapping "[{stream: \"external_attack\", pcp: 0, vlan: 40}]"
config *.compromisedNode.bridging.streamIdentifier.identifier.mapping "[{stream: \"compromised_attack\", packetFilter: expr(has(udp) && (udp.destPort == 8888 || udp.destPort == 5000))}]"
config *.compromisedNode.bridging.streamCoder.encoder.mapping "[{stream: \"compromised_attack\", pcp: 0, vlan: 41}]"
config *.criticalSensor.hasOutgoingStreams true
config *.display.hasOutgoingStreams true
config *.attackerExternal.hasOutgoingStreams true
config *.compromisedNode.hasOutgoingStreams true
config *.mainECU.hasOutgoingStreams true
config *.masterClock.hasOutgoingStreams true
config *.masterClock.bridging.streamIdentifier.identifier.mapping "[{stream: \"gptp\", packetFilter: expr(etherType == 0x88f7)}]"
config *.masterClock.bridging.streamCoder.encoder.mapping "[{stream: \"gptp\", pcp: 6, vlan: 0}]"
config "*.criticalSensor.bridging.streamIdentifier.identifier.mapping +" "[{stream: \"default_stream\", packetFilter: expr(true)}]"
config "*.criticalSensor.bridging.streamCoder.encoder.mapping        +" "[{stream: \"default_stream\",  pcp: 0, vlan: 0}]"
config "*.display.bridging.streamIdentifier.identifier.mapping       +" "[{stream: \"default_stream\", packetFilter: expr(true)}]"
config "*.display.bridging.streamCoder.encoder.mapping               +" "[{stream: \"default_stream\",  pcp: 0, vlan: 0}]"
config "*.attackerExternal.bridging.streamIdentifier.identifier.mapping +" "[{stream: \"default_stream\", packetFilter: expr(true)}]"
config "*.attackerExternal.bridging.streamCoder.encoder.mapping         +" "[{stream: \"default_stream\",  pcp: 0, vlan: 0}]"
config "*.compromisedNode.bridging.streamIdentifier.identifier.mapping  +" "[{stream: \"default_stream\", packetFilter: expr(true)}]"
config "*.compromisedNode.bridging.streamCoder.encoder.mapping          +" "[{stream: \"default_stream\",  pcp: 0, vlan: 0}]"
config "*.mainECU.bridging.streamIdentifier.identifier.mapping          +" "[{stream: \"default_stream\", packetFilter: expr(true)}]"
config "*.mainECU.bridging.streamCoder.encoder.mapping                  +" "[{stream: \"default_stream\",  pcp: 0, vlan: 0}]"
config *.centralSwitch.eth[*].macLayer.queue.numTrafficClasses 8
config *.centralSwitch.eth[*].macLayer.queue.classifier.typename PcpClassifier
config *.centralSwitch.eth[*].macLayer.queue.classifier.pcpToGateIndex "[0, 1, 2, 3, 4, 5, 6, 7]"
config *.centralSwitch.eth[*].macLayer.queue.transmissionGate[*].typename PeriodicGate
config *.centralSwitch.eth[*].macLayer.queue.transmissionGate[7].durations "[250us, 250us]"
config *.centralSwitch.eth[*].macLayer.queue.transmissionGate[6].durations "[200us, 300us]"
config *.centralSwitch.eth[*].macLayer.queue.transmissionGate[5].durations "[150us, 350us]"
config *.centralSwitch.eth[*].macLayer.queue.transmissionGate[4].durations "[100us, 400us]"
config *.centralSwitch.eth[*].macLayer.queue.transmissionGate[3].durations "[100us, 400us]"
config *.centralSwitch.eth[*].macLayer.queue.transmissionGate[2].durations "[50us, 450us]"
config *.centralSwitch.eth[*].macLayer.queue.transmissionGate[1].durations "[50us, 450us]"
config *.centralSwitch.eth[*].macLayer.queue.transmissionGate[0].durations "[25us, 475us]"
config *.centralSwitch.hasStreamRedundancy false
config *.centralSwitch.hasIngressTrafficFiltering true
config *.centralSwitch.bridging.streamIdentifier.typename StreamIdentifierLayer
config *.centralSwitch.bridging.streamIdentifier.identifier.typename StreamIdentifier
config *.centralSwitch.hasEgressTrafficShaping true
config *.centralSwitch.hasStreamFiltering true
config *.centralSwitch.hasStreamPolicing true
config *.centralSwitch.bridging.streamFilter.ingress.meter[*].colorAware false
config **.app[*].endToEndDelay:vector.result-recording-modes all
config **.app[*].endToEndDelay:vector.vector-recording true
config **.app[*].endToEndDelay:histogram.result-recording-modes all
config **.bitrate:vector.result-recording-modes all
config **.bitrate:vector.vector-recording true
config **.throughput:vector.result-recording-modes all
config **.throughput:vector.vector-recording true
config **.datarate:vector.result-recording-modes all
config **.datarate:vector.vector-recording true
config **.queue.queueLength:vector.result-recording-modes all
config **.queue.queueLength:vector.vector-recording true
config **.queue.queueingTime:vector.result-recording-modes all
config **.queue.queueingTime:vector.vector-recording true
config **.queue.queueBitLength:vector.result-recording-modes all
config **.queue.queueBitLength:vector.vector-recording true
config **.packetDropped:count.result-recording-modes all
config **.packetDropped:vector.result-recording-modes all
config **.packetDropped:vector.vector-recording true
config **.packetSent:count.result-recording-modes all
config **.packetReceived:count.result-recording-modes all
config **.rxPkOk:count.result-recording-modes all
config **.rxPkOk:vector.result-recording-modes all
config **.txPk:count.result-recording-modes all
config **.txPk:vector.result-recording-modes all
config **.bridging.streamFilter.ingress.meter[*].committedConformingPackets:count.result-recording-modes all
config **.bridging.streamFilter.ingress.meter[*].committedConformingPackets:vector.result-recording-modes all
config **.bridging.streamFilter.ingress.meter[*].committedConformingPackets:vector.vector-recording true
config **.bridging.streamFilter.ingress.meter[*].committedNonConformingPackets:count.result-recording-modes all
config **.bridging.streamFilter.ingress.meter[*].committedNonConformingPackets:vector.result-recording-modes all
config **.bridging.streamFilter.ingress.meter[*].committedNonConformingPackets:vector.vector-recording true
config **.bridging.streamFilter.ingress.meter[*].excessConformingPackets:count.result-recording-modes all
config **.bridging.streamFilter.ingress.meter[*].excessConformingPackets:vector.result-recording-modes all
config **.bridging.streamFilter.ingress.meter[*].excessConformingPackets:vector.vector-recording true
config **.bridging.streamFilter.ingress.meter[*].packetFiltered:count.result-recording-modes all
config **.bridging.streamFilter.ingress.meter[*].packetFiltered:vector.result-recording-modes all
config **.bridging.streamFilter.ingress.meter[*].packetFiltered:vector.vector-recording true
config **.bridging.streamCoder.packetEncoded:count.result-recording-modes all
config **.bridging.streamCoder.packetDecoded:count.result-recording-modes all
config **.bridging.streamIdentifier.packetClassified:count.result-recording-modes all
config **.bridging.streamIdentifier.packetClassified:vector.result-recording-modes all
config **.bridging.streamIdentifier.packetClassified:vector.vector-recording true
config **.queue.transmissionGate[*].gateStateChanged:vector.result-recording-modes all
config **.queue.transmissionGate[*].gateStateChanged:vector.vector-recording true
config **.queue.transmissionSelectionAlgorithm[*].credit:vector.result-recording-modes all
config **.queue.transmissionSelectionAlgorithm[*].credit:vector.vector-recording true
config **.gptp.clockServo.offsetNanoseconds:vector.result-recording-modes all
config **.gptp.clockServo.offsetNanoseconds:vector.vector-recording true
config **.gptp.clockServo.driftPpm:vector.result-recording-modes all
config **.gptp.clockServo.driftPpm:vector.vector-recording true
config **.gptp.clockServo.rateRatio:vector.result-recording-modes all
config **.gptp.clockServo.rateRatio:vector.vector-recording true
config **.mac.txPk:count.result-recording-modes all
config **.mac.rxPkOk:count.result-recording-modes all
config **.mac.frameSequenceErrors:count.result-recording-modes all
config **.mac.alignmentErrors:count.result-recording-modes all
config **.phy.txPk:count.result-recording-modes all
config **.phy.rxPkOk:count.result-recording-modes all
config **.phy.symbolErrors:count.result-recording-modes all
config **.ipv4.routingTable.routeAdded:count.result-recording-modes all
config **.ipv4.routingTable.routeDeleted:count.result-recording-modes all
config **.udp.packetSent:count.result-recording-modes all
config **.udp.packetReceived:count.result-recording-modes all
config **.udp.passedUpPk:count.result-recording-modes all
config **.pcp0:count.result-recording-modes all
config **.pcp1:count.result-recording-modes all
config **.pcp2:count.result-recording-modes all
config **.pcp3:count.result-recording-modes all
config **.pcp4:count.result-recording-modes all
config **.pcp5:count.result-recording-modes all
config **.pcp6:count.result-recording-modes all
config **.pcp7:count.result-recording-modes all
config *.attackerExternal.numApps 0
config *.compromisedNode.numApps 0
config *.visualizer.typename IntegratedCanvasVisualizer
config *.visualizer.dataLinkVisualizer.displayLinks true
config *.visualizer.dataLinkVisualizer.activityLevel "\"protocol\""
config *.visualizer.dataLinkVisualizer.fadeOutMode "\"simulationTime\""
config *.visualizer.dataLinkVisualizer.fadeOutTime 0.2s
config *.visualizer.statisticVisualizer.displayStatistics true
config *.visualizer.statisticVisualizer.signalName "\"packetReceived\""
config *.visualizer.statisticVisualizer.sourceFilter "\"**.app[*]\""
config *.visualizer.statisticVisualizer.format "\"count\""
config *.dataCollector.outputFile "\"results_flat/tsn_signals_TimingAttack-#1.csv\""
config *.dataCollector.windowLength 1ms
config *.dataCollector.emitCSV true
config *.dataCollector.emitPCPBreakdowns false
config *.dataCollector.emitRaw false
config *.dataCollector.emitNDJSON false
config *.dataCollector.emitPerStreamRows true
config *.dataCollector.includeControlFramesInThroughput true
config *.dataCollector.emitZeroIfNoSamples false
config *.mainECU.numApps 4
config *.mainECU.app[3].typename UdpBasicApp
config *.mainECU.app[3].localPort 6100
config *.mainECU.app[3].destAddresses "\"display\""
config *.mainECU.app[3].destPort 6000
config *.mainECU.app[3].messageLength 256B
config *.mainECU.app[3].sendInterval 2ms
config *.mainECU.app[3].startTime 10ms
config *.mainECU.app[3].stopTime 0.5s
config *.mlInferenceEngine.modelPath "\"../ml_models/tsn_extended_fdeep.json\""
config *.mlInferenceEngine.normPath "\"../ml_models/tsn_extended_norm.json\""
config *.mlInferenceEngine.inferenceInterval 1ms
config *.mlInferenceEngine.anomalyThreshold 0.7
config result-dir results_flat
config output-scalar-file results_flat/TimingAttack-1.sca
config output-vector-file results_flat/TimingAttack-1.vec
config **.result-recording-modes default
config **.vector-recording false
config **.scalar-recording false

par MinimalAttackNetwork.masterClock.ethg$o[0].channel typename "\"inet.node.ethernet.Eth100M\""
par MinimalAttackNetwork.masterClock.ethg$o[0].channel disabled false
attr mutable ""
par MinimalAttackNetwork.masterClock.ethg$o[0].channel delay 5e-08s
attr mutable ""
attr unit s
par MinimalAttackNetwork.masterClock.ethg$o[0].channel datarate 1e+08bps
attr mutable ""
attr unit bps
par MinimalAttackNetwork.masterClock.ethg$o[0].channel ber 0
attr mutable ""
par MinimalAttackNetwork.masterClock.ethg$o[0].channel per 0
attr mutable ""
par MinimalAttackNetwork.masterClock.ethg$o[0].channel length 10m
attr unit m
par MinimalAttackNetwork.centralSwitch.ethg$o[0].channel typename "\"inet.node.ethernet.Eth100M\""
par MinimalAttackNetwork.centralSwitch.ethg$o[0].channel disabled false
attr mutable ""
par MinimalAttackNetwork.centralSwitch.ethg$o[0].channel delay 5e-08s
attr mutable ""
attr unit s
par MinimalAttackNetwork.centralSwitch.ethg$o[0].channel datarate 1e+08bps
attr mutable ""
attr unit bps
par MinimalAttackNetwork.centralSwitch.ethg$o[0].channel ber 0
attr mutable ""
par MinimalAttackNetwork.centralSwitch.ethg$o[0].channel per 0
attr mutable ""
par MinimalAttackNetwork.centralSwitch.ethg$o[0].channel length 10m
attr unit m
par MinimalAttackNetwork.centralSwitch.ethg$o[1].channel typename "\"inet.node.ethernet.Eth1G\""
par MinimalAttackNetwork.centralSwitch.ethg$o[1].channel disabled false
attr mutable ""
par MinimalAttackNetwork.centralSwitch.ethg$o[1].channel delay 5e-08s
attr mutable ""
attr unit s
par MinimalAttackNetwork.centralSwitch.ethg$o[1].channel datarate 1e+09bps
attr mutable ""
attr unit bps
par MinimalAttackNetwork.centralSwitch.ethg$o[1].channel ber 0
attr mutable ""
par MinimalAttackNetwork.centralSwitch.ethg$o[1].channel per 0
attr mutable ""
par MinimalAttackNetwork.centralSwitch.ethg$o[1].channel length 10m
attr unit m
par MinimalAttackNetwork.mainECU.ethg$o[0].channel typename "\"inet.node.ethernet.Eth1G\""
par MinimalAttackNetwork.mainECU.ethg$o[0].channel disabled false
attr mutable ""
par MinimalAttackNetwork.mainECU.ethg$o[0].channel delay 5e-08s
attr mutable ""
attr unit s
par MinimalAttackNetwork.mainECU.ethg$o[0].channel datarate 1e+09bps
attr mutable ""
attr unit bps
par MinimalAttackNetwork.mainECU.ethg$o[0].channel ber 0
attr mutable ""
par MinimalAttackNetwork.mainECU.ethg$o[0].channel per 0
attr mutable ""
par MinimalAttackNetwork.mainECU.ethg$o[0].channel length 10m
attr unit m
par MinimalAttackNetwork.centralSwitch.ethg$o[2].channel typename "\"inet.node.ethernet.Eth100M\""
par MinimalAttackNetwork.centralSwitch.ethg$o[2].channel disabled false
attr mutable ""
par MinimalAttackNetwork.centralSwitch.ethg$o[2].channel delay 5e-08s
attr mutable ""
attr unit s
par MinimalAttackNetwork.centralSwitch.ethg$o[2].channel datarate 1e+08bps
attr mutable ""
attr unit bps
par MinimalAttackNetwork.centralSwitch.ethg$o[2].channel ber 0
attr mutable ""
par MinimalAttackNetwork.centralSwitch.ethg$o[2].channel per 0
attr mutable ""
par MinimalAttackNetwork.centralSwitch.ethg$o[2].channel length 10m
attr unit m
par MinimalAttackNetwork.criticalSensor.ethg$o[0].channel typename "\"inet.node.ethernet.Eth100M\""
par MinimalAttackNetwork.criticalSensor.ethg$o[0].channel disabled false
attr mutable ""
par MinimalAttackNetwork.criticalSensor.ethg$o[0].channel delay 5e-08s
attr mutable ""
attr unit s
par MinimalAttackNetwork.criticalSensor.ethg$o[0].channel datarate 1e+08bps
attr mutable ""
attr unit bps
par MinimalAttackNetwork.criticalSensor.ethg$o[0].channel ber 0
attr mutable ""
par MinimalAttackNetwork.criticalSensor.ethg$o[0].channel per 0
attr mutable ""
par MinimalAttackNetwork.criticalSensor.ethg$o[0].channel length 10m
attr unit m
par MinimalAttackNetwork.centralSwitch.ethg$o[3].channel typename "\"inet.node.ethernet.Eth100M\""
par MinimalAttackNetwork.centralSwitch.ethg$o[3].channel disabled false
attr mutable ""
par MinimalAttackNetwork.centralSwitch.ethg$o[3].channel delay 5e-08s
attr mutable ""
attr unit s
par MinimalAttackNetwork.centralSwitch.ethg$o[3].channel datarate 1e+08bps
attr mutable ""
attr unit bps
par MinimalAttackNetwork.centralSwitch.ethg$o[3].channel ber 0
attr mutable ""
par MinimalAttackNetwork.centralSwitch.ethg$o[3].channel per 0
attr mutable ""
par MinimalAttackNetwork.centralSwitch.ethg$o[3].channel length 10m
attr unit m
par MinimalAttackNetwork.display.ethg$o[0].channel typename "\"inet.node.ethernet.Eth100M\""
par MinimalAttackNetwork.display.ethg$o[0].channel disabled false
attr mutable ""
par MinimalAttackNetwork.display.ethg$o[0].channel delay 5e-08s
attr mutable ""
attr unit s
par MinimalAttackNetwork.display.ethg$o[0].channel datarate 1e+08bps
attr mutable ""
attr unit bps
par MinimalAttackNetwork.display.ethg$o[0].channel ber 0
attr mutable ""
par MinimalAttackNetwork.display.ethg$o[0].channel per 0
attr mutable ""
par MinimalAttackNetwork.display.ethg$o[0].channel length 10m
attr unit m
par MinimalAttackNetwork.centralSwitch.ethg$o[4].channel typename "\"inet.node.ethernet.Eth100M\""
par MinimalAttackNetwork.centralSwitch.ethg$o[4].channel disabled false
attr mutable ""
par MinimalAttackNetwork.centralSwitch.ethg$o[4].channel delay 5e-08s
attr mutable ""
attr unit s
par MinimalAttackNetwork.centralSwitch.ethg$o[4].channel datarate 1e+08bps
attr mutable ""
attr unit bps
par MinimalAttackNetwork.centralSwitch.ethg$o[4].channel ber 0
attr mutable ""
par MinimalAttackNetwork.centralSwitch.ethg$o[4].channel per 0
attr mutable ""
par MinimalAttackNetwork.centralSwitch.ethg$o[4].channel length 10m
attr unit m
par MinimalAttackNetwork.attackerExternal.ethg$o[0].channel typename "\"inet.node.ethernet.Eth100M\""
par MinimalAttackNetwork.attackerExternal.ethg$o[0].channel disabled false
attr mutable ""
par MinimalAttackNetwork.attackerExternal.ethg$o[0].channel delay 5e-08s
attr mutable ""
attr unit s
par MinimalAttackNetwork.attackerExternal.ethg$o[0].channel datarate 1e+08bps
attr mutable ""
attr unit bps
par MinimalAttackNetwork.attackerExternal.ethg$o[0].channel ber 0
attr mutable ""
par MinimalAttackNetwork.attackerExternal.ethg$o[0].channel per 0
attr mutable ""
par MinimalAttackNetwork.attackerExternal.ethg$o[0].channel length 10m
attr unit m
par MinimalAttackNetwork.centralSwitch.ethg$o[5].channel typename "\"inet.node.ethernet.Eth100M\""
par MinimalAttackNetwork.centralSwitch.ethg$o[5].channel disabled false
attr mutable ""
par MinimalAttackNetwork.centralSwitch.ethg$o[5].channel delay 5e-08s
attr mutable ""
attr unit s
par MinimalAttackNetwork.centralSwitch.ethg$o[5].channel datarate 1e+08bps
attr mutable ""
attr unit bps
par MinimalAttackNetwork.centralSwitch.ethg$o[5].channel ber 0
attr mutable ""
par MinimalAttackNetwork.centralSwitch.ethg$o[5].channel per 0
attr mutable ""
par MinimalAttackNetwork.centralSwitch.ethg$o[5].channel length 10m
attr unit m
par MinimalAttackNetwork.compromisedNode.ethg$o[0].channel typename "\"inet.node.ethernet.Eth100M\""
par MinimalAttackNetwork.compromisedNode.ethg$o[0].channel disabled false
attr mutable ""
par MinimalAttackNetwork.compromisedNode.ethg$o[0].channel delay 5e-08s
attr mutable ""
attr unit s
par MinimalAttackNetwork.compromisedNode.ethg$o[0].channel datarate 1e+08bps
attr mutable ""
attr unit bps
par MinimalAttackNetwork.compromisedNode.ethg$o[0].channel ber 0
attr mutable ""
par MinimalAttackNetwork.compromisedNode.ethg$o[0].channel per 0
attr mutable ""
par MinimalAttackNetwork.compromisedNode.ethg$o[0].channel length 10m
attr unit m
par MinimalAttackNetwork.visualizer.sceneVisualizer typename "\"inet.visualizer.canvas.scene.SceneCanvasVisualizer\""
par MinimalAttackNetwork.visualizer.sceneVisualizer visualizationTargetModule "\"^.^\""
par MinimalAttackNetwork.visualizer.sceneVisualizer visualizationSubjectModule "\"^.^\""
par MinimalAttackNetwork.visualizer.sceneVisualizer tags "\"\""
par MinimalAttackNetwork.visualizer.sceneVisualizer physicalEnvironmentModule "\"physicalEnvironment\""
par MinimalAttackNetwork.visualizer.sceneVisualizer networkNodeVisualizerModule "\"^.networkNodeVisualizer\""
par MinimalAttackNetwork.visualizer.sceneVisualizer axisLength "nan m"
attr mutable ""
attr unit m
par MinimalAttackNetwork.visualizer.sceneVisualizer animationSpeed 0
par MinimalAttackNetwork.visualizer.sceneVisualizer sceneMinX "nan m"
attr unit m
par MinimalAttackNetwork.visualizer.sceneVisualizer sceneMinY "nan m"
attr unit m
par MinimalAttackNetwork.visualizer.sceneVisualizer sceneMinZ "nan m"
attr unit m
par MinimalAttackNetwork.visualizer.sceneVisualizer sceneMaxX "nan m"
attr unit m
par MinimalAttackNetwork.visualizer.sceneVisualizer sceneMaxY "nan m"
attr unit m
par MinimalAttackNetwork.visualizer.sceneVisualizer sceneMaxZ "nan m"
attr unit m
par MinimalAttackNetwork.visualizer.sceneVisualizer zIndex 0
par MinimalAttackNetwork.visualizer.sceneVisualizer viewAngle "\"x right y down z out\""
attr mutable ""
par MinimalAttackNetwork.visualizer.sceneVisualizer viewScale "\"1 1\""
attr mutable ""
par MinimalAttackNetwork.visualizer.sceneVisualizer viewTranslation "\"0 0\""
attr mutable ""
par MinimalAttackNetwork.visualizer.sceneVisualizer descriptionFigure "\"\""
par MinimalAttackNetwork.visualizer.physicalEnvironmentVisualizer typename "\"inet.visualizer.canvas.environment.PhysicalEnvironmentCanvasVisualizer\""
par MinimalAttackNetwork.visualizer.physicalEnvironmentVisualizer visualizationTargetModule "\"^.^\""
par MinimalAttackNetwork.visualizer.physicalEnvironmentVisualizer visualizationSubjectModule "\"^.^\""
par MinimalAttackNetwork.visualizer.physicalEnvironmentVisualizer tags "\"\""
par MinimalAttackNetwork.visualizer.physicalEnvironmentVisualizer physicalEnvironmentModule "\"physicalEnvironment\""
par MinimalAttackNetwork.visualizer.physicalEnvironmentVisualizer displayObjects true
par MinimalAttackNetwork.visualizer.physicalEnvironmentVisualizer zIndex 0
par MinimalAttackNetwork.visualizer.networkNodeVisualizer typename "\"inet.visualizer.canvas.scene.NetworkNodeCanvasVisualizer\""
par MinimalAttackNetwork.visualizer.networkNodeVisualizer visualizationTargetModule "\"^.^\""
par MinimalAttackNetwork.visualizer.networkNodeVisualizer visualizationSubjectModule "\"^.^\""
par MinimalAttackNetwork.visualizer.networkNodeVisualizer tags "\"\""
par MinimalAttackNetwork.visualizer.networkNodeVisualizer nodeFilter "\"*\""
attr mutable ""
par MinimalAttackNetwork.visualizer.networkNodeVisualizer annotationSpacing 4
par MinimalAttackNetwork.visualizer.networkNodeVisualizer placementPenalty 10
par MinimalAttackNetwork.visualizer.networkNodeVisualizer zIndex 0
par MinimalAttackNetwork.visualizer.networkConnectionVisualizer typename "\"inet.visualizer.canvas.scene.NetworkConnectionCanvasVisualizer\""
par MinimalAttackNetwork.visualizer.networkConnectionVisualizer visualizationTargetModule "\"^.^\""
par MinimalAttackNetwork.visualizer.networkConnectionVisualizer visualizationSubjectModule "\"^.^\""
par MinimalAttackNetwork.visualizer.networkConnectionVisualizer tags "\"\""
par MinimalAttackNetwork.visualizer.networkConnectionVisualizer displayNetworkConnections true
par MinimalAttackNetwork.visualizer.networkConnectionVisualizer nodeFilter "\"\""
attr mutable ""
par MinimalAttackNetwork.visualizer.networkConnectionVisualizer lineColor "\"black\""
par MinimalAttackNetwork.visualizer.networkConnectionVisualizer lineStyle "\"solid\""
par MinimalAttackNetwork.visualizer.networkConnectionVisualizer lineWidth 1
par MinimalAttackNetwork.visualizer.networkConnectionVisualizer zIndex 0
par MinimalAttackNetwork.visualizer.mobilityVisualizer typename "\"inet.visualizer.canvas.mobility.MobilityCanvasVisualizer\""
par MinimalAttackNetwork.visualizer.mobilityVisualizer visualizationTargetModule "\"^.^\""
par MinimalAttackNetwork.visualizer.mobilityVisualizer visualizationSubjectModule "\"^.^\""
par MinimalAttackNetwork.visualizer.mobilityVisualizer tags "\"\""
par MinimalAttackNetwork.visualizer.mobilityVisualizer networkNodeVisualizerModule "\"^.networkNodeVisualizer\""
par MinimalAttackNetwork.visualizer.mobilityVisualizer displayMobility true
par MinimalAttackNetwork.visualizer.mobilityVisualizer animationSpeed 0
par MinimalAttackNetwork.visualizer.mobilityVisualizer moduleFilter "\"**.mobility\""
attr mutable ""
par MinimalAttackNetwork.visualizer.mobilityVisualizer displayPositions false
par MinimalAttackNetwork.visualizer.mobilityVisualizer positionCircleRadius 4
par MinimalAttackNetwork.visualizer.mobilityVisualizer positionCircleLineWidth 1
par MinimalAttackNetwork.visualizer.mobilityVisualizer positionCircleLineColor "\"dark\""
par MinimalAttackNetwork.visualizer.mobilityVisualizer positionCircleFillColor "\"dark\""
par MinimalAttackNetwork.visualizer.mobilityVisualizer displayOrientations false
par MinimalAttackNetwork.visualizer.mobilityVisualizer orientationPieRadius 32
par MinimalAttackNetwork.visualizer.mobilityVisualizer orientationPieSize 0.2
par MinimalAttackNetwork.visualizer.mobilityVisualizer orientationPieOpacity 0.25
par MinimalAttackNetwork.visualizer.mobilityVisualizer orientationLineColor "\"black\""
par MinimalAttackNetwork.visualizer.mobilityVisualizer orientationLineStyle "\"solid\""
par MinimalAttackNetwork.visualizer.mobilityVisualizer orientationLineWidth 1
par MinimalAttackNetwork.visualizer.mobilityVisualizer orientationFillColor "\"blue\""
par MinimalAttackNetwork.visualizer.mobilityVisualizer displayVelocities false
par MinimalAttackNetwork.visualizer.mobilityVisualizer velocityArrowScale 1
par MinimalAttackNetwork.visualizer.mobilityVisualizer velocityLineColor "\"black\""
par MinimalAttackNetwork.visualizer.mobilityVisualizer velocityLineStyle "\"solid\""
par MinimalAttackNetwork.visualizer.mobilityVisualizer velocityLineWidth 1
par MinimalAttackNetwork.visualizer.mobilityVisualizer displayMovementTrails false
par MinimalAttackNetwork.visualizer.mobilityVisualizer movementTrailLineColor "\"dark\""
par MinimalAttackNetwork.visualizer.mobilityVisualizer movementTrailLineStyle "\"solid\""
par MinimalAttackNetwork.visualizer.mobilityVisualizer movementTrailLineWidth 1
par MinimalAttackNetwork.visualizer.mobilityVisualizer trailLength 100
par MinimalAttackNetwork.visualizer.mobilityVisualizer zIndex 0
par MinimalAttackNetwork.visualizer.statisticVisualizer typename "\"inet.visualizer.canvas.common.StatisticCanvasVisualizer\""
par MinimalAttackNetwork.visualizer.statisticVisualizer visualizationTargetModule "\"^.^\""
par MinimalAttackNetwork.visualizer.statisticVisualizer visualizationSubjectModule "\"^.^\""
par MinimalAttackNetwork.visualizer.statisticVisualizer tags "\"\""
par MinimalAttackNetwork.visualizer.statisticVisualizer networkNodeVisualizerModule "\"^.networkNodeVisualizer\""
par MinimalAttackNetwork.visualizer.statisticVisualizer displayStatistics true
par MinimalAttackNetwork.visualizer.statisticVisualizer signalName "\"packetReceived\""
par MinimalAttackNetwork.visualizer.statisticVisualizer statisticName "\"packetReceived\""
par MinimalAttackNetwork.visualizer.statisticVisualizer statisticUnit "\"\""
par MinimalAttackNetwork.visualizer.statisticVisualizer statisticExpression "\"\""
par MinimalAttackNetwork.visualizer.statisticVisualizer sourceFilter "\"**.app[*]\""
attr mutable ""
par MinimalAttackNetwork.visualizer.statisticVisualizer format "\"count\""
attr mutable ""
par MinimalAttackNetwork.visualizer.statisticVisualizer unit "\"\""
par MinimalAttackNetwork.visualizer.statisticVisualizer font "\"<default>\""
par MinimalAttackNetwork.visualizer.statisticVisualizer textColor "\"black\""
par MinimalAttackNetwork.visualizer.statisticVisualizer backgroundColor "\"white\""
par MinimalAttackNetwork.visualizer.statisticVisualizer opacity 1
par MinimalAttackNetwork.visualizer.statisticVisualizer placementHint "\"top\""
par MinimalAttackNetwork.visualizer.statisticVisualizer placementPriority 0
par MinimalAttackNetwork.visualizer.statisticVisualizer zIndex 10
par MinimalAttackNetwork.visualizer.statisticVisualizer propertyName "\"\""
par MinimalAttackNetwork.visualizer.statisticVisualizer propertyIndex "\"\""
par MinimalAttackNetwork.visualizer.infoVisualizer typename "\"inet.visualizer.canvas.common.InfoCanvasVisualizer\""
par MinimalAttackNetwork.visualizer.infoVisualizer visualizationTargetModule "\"^.^\""
par MinimalAttackNetwork.visualizer.infoVisualizer visualizationSubjectModule "\"^.^\""
par MinimalAttackNetwork.visualizer.infoVisualizer tags "\"\""
par MinimalAttackNetwork.visualizer.infoVisualizer networkNodeVisualizerModule "\"^.networkNodeVisualizer\""
par MinimalAttackNetwork.visualizer.infoVisualizer displayInfos true
par MinimalAttackNetwork.visualizer.infoVisualizer modules "\"\""
attr mutable ""
par MinimalAttackNetwork.visualizer.infoVisualizer format "\"%t\""
attr mutable ""
par MinimalAttackNetwork.visualizer.infoVisualizer font "\"<default>\""
par MinimalAttackNetwork.visualizer.infoVisualizer textColor "\"black\""
par MinimalAttackNetwork.visualizer.infoVisualizer backgroundColor "\"white\""
par MinimalAttackNetwork.visualizer.infoVisualizer opacity 1
par MinimalAttackNetwork.visualizer.infoVisualizer placementHint "\"top\""
par MinimalAttackNetwork.visualizer.infoVisualizer placementPriority 0
par MinimalAttackNetwork.visualizer.infoVisualizer zIndex 10
par MinimalAttackNetwork.visualizer.energyStorageVisualizer typename "\"inet.visualizer.canvas.power.EnergyStorageCanvasVisualizer\""
par MinimalAttackNetwork.visualizer.energyStorageVisualizer visualizationTargetModule "\"^.^\""
par MinimalAttackNetwork.visualizer.energyStorageVisualizer visualizationSubjectModule "\"^.^\""
par MinimalAttackNetwork.visualizer.energyStorageVisualizer tags "\"\""
par MinimalAttackNetwork.visualizer.energyStorageVisualizer networkNodeVisualizerModule "\"^.networkNodeVisualizer\""
par MinimalAttackNetwork.visualizer.energyStorageVisualizer displayEnergyStorages false
par MinimalAttackNetwork.visualizer.energyStorageVisualizer energyStorageFilter "\"**\""
par MinimalAttackNetwork.visualizer.energyStorageVisualizer color "\"green\""
par MinimalAttackNetwork.visualizer.energyStorageVisualizer width 8
par MinimalAttackNetwork.visualizer.energyStorageVisualizer height 24
par MinimalAttackNetwork.visualizer.energyStorageVisualizer spacing 2
par MinimalAttackNetwork.visualizer.energyStorageVisualizer placementHint "\"right\""
par MinimalAttackNetwork.visualizer.energyStorageVisualizer placementPriority 0
par MinimalAttackNetwork.visualizer.energyStorageVisualizer zIndex 10
par MinimalAttackNetwork.visualizer.mediumVisualizer typename "\"inet.visualizer.canvas.physicallayer.MediumCanvasVisualizer\""
par MinimalAttackNetwork.visualizer.mediumVisualizer visualizationTargetModule "\"^.^\""
par MinimalAttackNetwork.visualizer.mediumVisualizer visualizationSubjectModule "\"^.^\""
par MinimalAttackNetwork.visualizer.mediumVisualizer tags "\"\""
par MinimalAttackNetwork.visualizer.mediumVisualizer mediumModule "\"radioMedium\""
par MinimalAttackNetwork.visualizer.mediumVisualizer networkNodeVisualizerModule "\"^.networkNodeVisualizer\""
par MinimalAttackNetwork.visualizer.mediumVisualizer nodeFilter "\"*\""
attr mutable ""
par MinimalAttackNetwork.visualizer.mediumVisualizer interfaceFilter "\"*\""
attr mutable ""
par MinimalAttackNetwork.visualizer.mediumVisualizer packetFilter "(omnetpp::cValueHolder)holder: \"*\""
attr mutable ""
par MinimalAttackNetwork.visualizer.mediumVisualizer displaySignals false
par MinimalAttackNetwork.visualizer.mediumVisualizer signalColor "\"dark\""
par MinimalAttackNetwork.visualizer.mediumVisualizer signalPropagationAnimationSpeed "nan "
attr mutable ""
par MinimalAttackNetwork.visualizer.mediumVisualizer signalPropagationAnimationTime 1s
attr unit s
par MinimalAttackNetwork.visualizer.mediumVisualizer signalPropagationAdditionalTime 0s
attr unit s
par MinimalAttackNetwork.visualizer.mediumVisualizer signalTransmissionAnimationSpeed "nan "
attr mutable ""
par MinimalAttackNetwork.visualizer.mediumVisualizer signalTransmissionAnimationTime 1s
attr unit s
par MinimalAttackNetwork.visualizer.mediumVisualizer signalAnimationSpeedChangeTimeMode "\"realTime\""
attr enum realTime,animationTime,simulationTime
par MinimalAttackNetwork.visualizer.mediumVisualizer signalAnimationSpeedChangeTime 1s
attr unit s
par MinimalAttackNetwork.visualizer.mediumVisualizer displaySignalDepartures false
par MinimalAttackNetwork.visualizer.mediumVisualizer signalDepartureImage "\"misc/signal_departure.png\""
par MinimalAttackNetwork.visualizer.mediumVisualizer signalDeparturePlacementHint "\"topCenter\""
par MinimalAttackNetwork.visualizer.mediumVisualizer signalDeparturePlacementPriority 1
par MinimalAttackNetwork.visualizer.mediumVisualizer displaySignalArrivals false
par MinimalAttackNetwork.visualizer.mediumVisualizer signalArrivalImage "\"misc/signal_arrival.png\""
par MinimalAttackNetwork.visualizer.mediumVisualizer signalArrivalPlacementHint "\"topCenter\""
par MinimalAttackNetwork.visualizer.mediumVisualizer signalArrivalPlacementPriority -1
par MinimalAttackNetwork.visualizer.mediumVisualizer displayCommunicationRanges false
par MinimalAttackNetwork.visualizer.mediumVisualizer communicationRangeLineColor "\"blue\""
par MinimalAttackNetwork.visualizer.mediumVisualizer communicationRangeLineStyle "\"solid\""
par MinimalAttackNetwork.visualizer.mediumVisualizer communicationRangeLineWidth 1
par MinimalAttackNetwork.visualizer.mediumVisualizer displayInterferenceRanges false
par MinimalAttackNetwork.visualizer.mediumVisualizer interferenceRangeLineColor "\"gray\""
par MinimalAttackNetwork.visualizer.mediumVisualizer interferenceRangeLineStyle "\"solid\""
par MinimalAttackNetwork.visualizer.mediumVisualizer interferenceRangeLineWidth 1
par MinimalAttackNetwork.visualizer.mediumVisualizer autoPowerAxis true
par MinimalAttackNetwork.visualizer.mediumVisualizer signalMinPower "inf dBmW"
attr unit dBmW
par MinimalAttackNetwork.visualizer.mediumVisualizer signalMaxPower 0dBmW
attr unit dBmW
par MinimalAttackNetwork.visualizer.mediumVisualizer signalMinPowerDensity "inf dBmWpMHz"
attr unit dBmWpMHz
par MinimalAttackNetwork.visualizer.mediumVisualizer signalMaxPowerDensity "-inf dBmWpMHz"
attr unit dBmWpMHz
par MinimalAttackNetwork.visualizer.mediumVisualizer autoTimeAxis true
par MinimalAttackNetwork.visualizer.mediumVisualizer signalMinTime 0s
attr unit s
par MinimalAttackNetwork.visualizer.mediumVisualizer signalMaxTime 0s
attr unit s
par MinimalAttackNetwork.visualizer.mediumVisualizer autoFrequencyAxis true
par MinimalAttackNetwork.visualizer.mediumVisualizer signalMinFrequency "inf Hz"
attr unit Hz
par MinimalAttackNetwork.visualizer.mediumVisualizer signalMaxFrequency "-inf Hz"
attr unit Hz
par MinimalAttackNetwork.visualizer.mediumVisualizer displayMainPowerDensityMap false
par MinimalAttackNetwork.visualizer.mediumVisualizer mainPowerDensityMapPixmapDensity 1
par MinimalAttackNetwork.visualizer.mediumVisualizer mainPowerDensityMapMinX 0
par MinimalAttackNetwork.visualizer.mediumVisualizer mainPowerDensityMapMaxX "nan "
par MinimalAttackNetwork.visualizer.mediumVisualizer mainPowerDensityMapMinY 0
par MinimalAttackNetwork.visualizer.mediumVisualizer mainPowerDensityMapMaxY "nan "
par MinimalAttackNetwork.visualizer.mediumVisualizer mainPowerDensityMapZ 0
par MinimalAttackNetwork.visualizer.mediumVisualizer mainPowerDensityMapFigureXTickCount 3
par MinimalAttackNetwork.visualizer.mediumVisualizer mainPowerDensityMapFigureYTickCount 3
par MinimalAttackNetwork.visualizer.mediumVisualizer displayPowerDensityMaps false
par MinimalAttackNetwork.visualizer.mediumVisualizer powerDensityMapMode "\"auto\""
attr enum total,signal,auto
par MinimalAttackNetwork.visualizer.mediumVisualizer powerDensityMapPixelMode "\"mean\""
attr enum sample,partition,mean
par MinimalAttackNetwork.visualizer.mediumVisualizer powerDensityMapApproximationSize 10
par MinimalAttackNetwork.visualizer.mediumVisualizer powerDensityMapCenterFrequency "nan Hz"
attr mutable ""
attr unit Hz
par MinimalAttackNetwork.visualizer.mediumVisualizer powerDensityMapBandwidth 0Hz
attr mutable ""
attr unit Hz
par MinimalAttackNetwork.visualizer.mediumVisualizer powerDensityMapFigureWidth 200
par MinimalAttackNetwork.visualizer.mediumVisualizer powerDensityMapFigureHeight 120
par MinimalAttackNetwork.visualizer.mediumVisualizer powerDensityMapPixmapWidth 200
par MinimalAttackNetwork.visualizer.mediumVisualizer powerDensityMapPixmapHeight 120
par MinimalAttackNetwork.visualizer.mediumVisualizer powerDensityMapZ 0
par MinimalAttackNetwork.visualizer.mediumVisualizer powerDensityMapFigureXTickCount 3
par MinimalAttackNetwork.visualizer.mediumVisualizer powerDensityMapFigureYTickCount 3
par MinimalAttackNetwork.visualizer.mediumVisualizer displaySpectrums false
par MinimalAttackNetwork.visualizer.mediumVisualizer spectrumMode "\"auto\""
attr enum total,signal,auto
par MinimalAttackNetwork.visualizer.mediumVisualizer spectrumFigureWidth 200
par MinimalAttackNetwork.visualizer.mediumVisualizer spectrumFigureHeight 120
par MinimalAttackNetwork.visualizer.mediumVisualizer spectrumFigureXTickCount 3
par MinimalAttackNetwork.visualizer.mediumVisualizer spectrumFigureYTickCount 5
par MinimalAttackNetwork.visualizer.mediumVisualizer spectrumFigureInterpolationSize 5
par MinimalAttackNetwork.visualizer.mediumVisualizer spectrumPlacementHint "\"bottomCenter\""
par MinimalAttackNetwork.visualizer.mediumVisualizer spectrumPlacementPriority -1
par MinimalAttackNetwork.visualizer.mediumVisualizer displaySpectrograms false
par MinimalAttackNetwork.visualizer.mediumVisualizer spectrogramMode "\"auto\""
attr enum total,signal,auto
par MinimalAttackNetwork.visualizer.mediumVisualizer spectrogramPixelMode "\"mean\""
attr enum sample,partition,mean
par MinimalAttackNetwork.visualizer.mediumVisualizer spectrogramFigureWidth 200
par MinimalAttackNetwork.visualizer.mediumVisualizer spectrogramFigureHeight 120
par MinimalAttackNetwork.visualizer.mediumVisualizer spectrogramPixmapWidth 200
par MinimalAttackNetwork.visualizer.mediumVisualizer spectrogramPixmapHeight 120
par MinimalAttackNetwork.visualizer.mediumVisualizer spectrogramFigureXTickCount 3
par MinimalAttackNetwork.visualizer.mediumVisualizer spectrogramFigureYTickCount 5
par MinimalAttackNetwork.visualizer.mediumVisualizer spectrogramPlacementHint "\"bottomCenter\""
par MinimalAttackNetwork.visualizer.mediumVisualizer spectrogramPlacementPriority -1
par MinimalAttackNetwork.visualizer.mediumVisualizer zIndex 0
par MinimalAttackNetwork.visualizer.mediumVisualizer signalShape "\"ring\""
attr enum ring,sphere
par MinimalAttackNetwork.visualizer.mediumVisualizer signalOpacity 0.5
par MinimalAttackNetwork.visualizer.mediumVisualizer signalRingCount 20
par MinimalAttackNetwork.visualizer.mediumVisualizer signalRingSize 50m
attr unit m
par MinimalAttackNetwork.visualizer.mediumVisualizer signalFadingDistance 50m
attr unit m
par MinimalAttackNetwork.visualizer.mediumVisualizer signalFadingFactor 1.2
par MinimalAttackNetwork.visualizer.mediumVisualizer signalWaveCount 20
par MinimalAttackNetwork.visualizer.mediumVisualizer signalWaveLength 50m
attr unit m
par MinimalAttackNetwork.visualizer.mediumVisualizer signalWaveWidth 10m
attr unit m
par MinimalAttackNetwork.visualizer.mediumVisualizer signalWaveFadingAnimationSpeedFactor 1
par MinimalAttackNetwork.visualizer.mediumVisualizer displayCommunicationHeat false
par MinimalAttackNetwork.visualizer.obstacleLossVisualizer typename "\"inet.visualizer.canvas.physicallayer.TracingObstacleLossCanvasVisualizer\""
par MinimalAttackNetwork.visualizer.obstacleLossVisualizer visualizationTargetModule "\"^.^\""
par MinimalAttackNetwork.visualizer.obstacleLossVisualizer visualizationSubjectModule "\"^.^\""
par MinimalAttackNetwork.visualizer.obstacleLossVisualizer tags "\"\""
par MinimalAttackNetwork.visualizer.obstacleLossVisualizer displayIntersections false
par MinimalAttackNetwork.visualizer.obstacleLossVisualizer intersectionLineColor "\"red\""
par MinimalAttackNetwork.visualizer.obstacleLossVisualizer intersectionLineStyle "\"solid\""
par MinimalAttackNetwork.visualizer.obstacleLossVisualizer intersectionLineWidth 1
par MinimalAttackNetwork.visualizer.obstacleLossVisualizer displayFaceNormalVectors false
par MinimalAttackNetwork.visualizer.obstacleLossVisualizer faceNormalLineColor "\"grey\""
par MinimalAttackNetwork.visualizer.obstacleLossVisualizer faceNormalLineStyle "\"solid\""
par MinimalAttackNetwork.visualizer.obstacleLossVisualizer faceNormalLineWidth 1
par MinimalAttackNetwork.visualizer.obstacleLossVisualizer fadeOutMode "\"realTime\""
attr enum realTime,animationTime,simulationTime
par MinimalAttackNetwork.visualizer.obstacleLossVisualizer fadeOutTime 1s
attr unit s
par MinimalAttackNetwork.visualizer.obstacleLossVisualizer fadeOutAnimationSpeed 0
par MinimalAttackNetwork.visualizer.obstacleLossVisualizer zIndex 0
par MinimalAttackNetwork.visualizer.packetDropVisualizer typename "\"inet.visualizer.canvas.common.PacketDropCanvasVisualizer\""
par MinimalAttackNetwork.visualizer.packetDropVisualizer visualizationTargetModule "\"^.^\""
par MinimalAttackNetwork.visualizer.packetDropVisualizer visualizationSubjectModule "\"^.^\""
par MinimalAttackNetwork.visualizer.packetDropVisualizer tags "\"\""
par MinimalAttackNetwork.visualizer.packetDropVisualizer displayPacketDrops false
par MinimalAttackNetwork.visualizer.packetDropVisualizer nodeFilter "\"*\""
attr mutable ""
par MinimalAttackNetwork.visualizer.packetDropVisualizer interfaceFilter "\"*\""
attr mutable ""
par MinimalAttackNetwork.visualizer.packetDropVisualizer packetFilter "(omnetpp::cValueHolder)holder: \"*\""
attr mutable ""
par MinimalAttackNetwork.visualizer.packetDropVisualizer detailsFilter "\"*\""
attr mutable ""
par MinimalAttackNetwork.visualizer.packetDropVisualizer icon "\"msg/packet_s\""
par MinimalAttackNetwork.visualizer.packetDropVisualizer iconTintAmount 1
par MinimalAttackNetwork.visualizer.packetDropVisualizer iconTintColor "\"dark\""
par MinimalAttackNetwork.visualizer.packetDropVisualizer labelFormat "\"%n\""
attr mutable ""
par MinimalAttackNetwork.visualizer.packetDropVisualizer labelFont "\"<default>\""
par MinimalAttackNetwork.visualizer.packetDropVisualizer labelColor "\"black\""
par MinimalAttackNetwork.visualizer.packetDropVisualizer fadeOutMode "\"realTime\""
attr enum realTime,animationTime,simulationTime
par MinimalAttackNetwork.visualizer.packetDropVisualizer fadeOutTime 1s
attr unit s
par MinimalAttackNetwork.visualizer.packetDropVisualizer fadeOutAnimationSpeed 0
par MinimalAttackNetwork.visualizer.packetDropVisualizer zIndex 10
par MinimalAttackNetwork.visualizer.packetDropVisualizer dx 32
par MinimalAttackNetwork.visualizer.packetDropVisualizer dy 64
par MinimalAttackNetwork.visualizer.packetFlowVisualizer typename "\"inet.visualizer.canvas.flow.PacketFlowCanvasVisualizer\""
par MinimalAttackNetwork.visualizer.packetFlowVisualizer visualizationTargetModule "\"^.^\""
par MinimalAttackNetwork.visualizer.packetFlowVisualizer visualizationSubjectModule "\"^.^\""
par MinimalAttackNetwork.visualizer.packetFlowVisualizer tags "\"\""
par MinimalAttackNetwork.visualizer.packetFlowVisualizer displayRoutes false
par MinimalAttackNetwork.visualizer.packetFlowVisualizer startPathSignal "\"packetFlowStarted\""
par MinimalAttackNetwork.visualizer.packetFlowVisualizer extendPathSignal "\"packetReceivedFromLower\""
par MinimalAttackNetwork.visualizer.packetFlowVisualizer endPathSignal "\"packetFlowEnded\""
par MinimalAttackNetwork.visualizer.packetFlowVisualizer nodeFilter "\"*\""
attr mutable ""
par MinimalAttackNetwork.visualizer.packetFlowVisualizer packetFilter "(omnetpp::cValueHolder)holder: \"*\""
attr mutable ""
par MinimalAttackNetwork.visualizer.packetFlowVisualizer lineColor "\"dark\""
par MinimalAttackNetwork.visualizer.packetFlowVisualizer lineStyle "\"dashed\""
par MinimalAttackNetwork.visualizer.packetFlowVisualizer lineWidth 3
par MinimalAttackNetwork.visualizer.packetFlowVisualizer lineSmooth false
par MinimalAttackNetwork.visualizer.packetFlowVisualizer lineShift 16
par MinimalAttackNetwork.visualizer.packetFlowVisualizer lineShiftMode "\"normal\""
par MinimalAttackNetwork.visualizer.packetFlowVisualizer lineContactSpacing 3
par MinimalAttackNetwork.visualizer.packetFlowVisualizer lineContactMode "\"rectangular\""
attr enum circular,rectangular
par MinimalAttackNetwork.visualizer.packetFlowVisualizer labelFormat "\"%L %p pk (%l)\""
par MinimalAttackNetwork.visualizer.packetFlowVisualizer labelFont "\"<default>, 8px\""
par MinimalAttackNetwork.visualizer.packetFlowVisualizer labelColor "\"\""
par MinimalAttackNetwork.visualizer.packetFlowVisualizer fadeOutMode "\"realTime\""
attr enum realTime,animationTime,simulationTime
par MinimalAttackNetwork.visualizer.packetFlowVisualizer fadeOutTime 0s
attr unit s
par MinimalAttackNetwork.visualizer.packetFlowVisualizer fadeOutAnimationSpeed 0
par MinimalAttackNetwork.visualizer.packetFlowVisualizer zIndex 4
par MinimalAttackNetwork.visualizer.queueVisualizer typename "\"inet.visualizer.canvas.common.QueueCanvasVisualizer\""
par MinimalAttackNetwork.visualizer.queueVisualizer visualizationTargetModule "\"^.^\""
par MinimalAttackNetwork.visualizer.queueVisualizer visualizationSubjectModule "\"^.^\""
par MinimalAttackNetwork.visualizer.queueVisualizer tags "\"\""
par MinimalAttackNetwork.visualizer.queueVisualizer networkNodeVisualizerModule "\"^.networkNodeVisualizer\""
par MinimalAttackNetwork.visualizer.queueVisualizer displayQueues false
par MinimalAttackNetwork.visualizer.queueVisualizer queueFilter "\"**\""
par MinimalAttackNetwork.visualizer.queueVisualizer color "\"blue\""
par MinimalAttackNetwork.visualizer.queueVisualizer width 8
par MinimalAttackNetwork.visualizer.queueVisualizer height 24
par MinimalAttackNetwork.visualizer.queueVisualizer spacing 2
par MinimalAttackNetwork.visualizer.queueVisualizer placementHint "\"right\""
par MinimalAttackNetwork.visualizer.queueVisualizer placementPriority 0
par MinimalAttackNetwork.visualizer.queueVisualizer zIndex 10
par MinimalAttackNetwork.visualizer.gateScheduleVisualizer typename "\"inet.visualizer.canvas.common.GateScheduleCanvasVisualizer\""
par MinimalAttackNetwork.visualizer.gateScheduleVisualizer visualizationTargetModule "\"^.^\""
par MinimalAttackNetwork.visualizer.gateScheduleVisualizer visualizationSubjectModule "\"^.^\""
par MinimalAttackNetwork.visualizer.gateScheduleVisualizer tags "\"\""
par MinimalAttackNetwork.visualizer.gateScheduleVisualizer networkNodeVisualizerModule "\"^.networkNodeVisualizer\""
par MinimalAttackNetwork.visualizer.gateScheduleVisualizer displayGateSchedules false
par MinimalAttackNetwork.visualizer.gateScheduleVisualizer labelFormat "\"%i %D\""
par MinimalAttackNetwork.visualizer.gateScheduleVisualizer gateFilter "\"**\""
par MinimalAttackNetwork.visualizer.gateScheduleVisualizer width 100
par MinimalAttackNetwork.visualizer.gateScheduleVisualizer height 8
par MinimalAttackNetwork.visualizer.gateScheduleVisualizer spacing 2
par MinimalAttackNetwork.visualizer.gateScheduleVisualizer placementHint "\"right\""
par MinimalAttackNetwork.visualizer.gateScheduleVisualizer placementPriority 0
par MinimalAttackNetwork.visualizer.gateScheduleVisualizer displayDuration 0s
attr mutable ""
attr unit s
par MinimalAttackNetwork.visualizer.gateScheduleVisualizer currentTimePosition 50
par MinimalAttackNetwork.visualizer.gateScheduleVisualizer zIndex 10
par MinimalAttackNetwork.visualizer.radioVisualizer typename "\"inet.visualizer.canvas.physicallayer.RadioCanvasVisualizer\""
par MinimalAttackNetwork.visualizer.radioVisualizer visualizationTargetModule "\"^.^\""
par MinimalAttackNetwork.visualizer.radioVisualizer visualizationSubjectModule "\"^.^\""
par MinimalAttackNetwork.visualizer.radioVisualizer tags "\"\""
par MinimalAttackNetwork.visualizer.radioVisualizer networkNodeVisualizerModule "\"^.networkNodeVisualizer\""
par MinimalAttackNetwork.visualizer.radioVisualizer displayRadios false
par MinimalAttackNetwork.visualizer.radioVisualizer displayRadioMode true
par MinimalAttackNetwork.visualizer.radioVisualizer displayReceptionState true
par MinimalAttackNetwork.visualizer.radioVisualizer displayTransmissionState true
par MinimalAttackNetwork.visualizer.radioVisualizer displayAntennaLobes false
par MinimalAttackNetwork.visualizer.radioVisualizer radioFilter "\"**\""
attr mutable ""
par MinimalAttackNetwork.visualizer.radioVisualizer radioModeImages "\"block/process_vs block/timer_vs block/wrx_vs block/wtx_vs block/wrxtx_vs block/cogwheel_vs\""
par MinimalAttackNetwork.visualizer.radioVisualizer receptionStateImages "\"- - misc/receiving misc/receiving\""
par MinimalAttackNetwork.visualizer.radioVisualizer transmissionStateImages "\"- - misc/transmitting\""
par MinimalAttackNetwork.visualizer.radioVisualizer width 16
par MinimalAttackNetwork.visualizer.radioVisualizer height 16
par MinimalAttackNetwork.visualizer.radioVisualizer placementHint "\"bottomRight\""
par MinimalAttackNetwork.visualizer.radioVisualizer placementPriority 0
par MinimalAttackNetwork.visualizer.radioVisualizer antennaLobeNormalize false
par MinimalAttackNetwork.visualizer.radioVisualizer antennaLobeRelativeLabels false
par MinimalAttackNetwork.visualizer.radioVisualizer antennaLobePlaneGlobal true
par MinimalAttackNetwork.visualizer.radioVisualizer antennaLobePlane "\"view\""
attr enum view,xy,xz,yz
par MinimalAttackNetwork.visualizer.radioVisualizer antennaLobeMode "\"logarithmic\""
attr enum logarithmic,linear
par MinimalAttackNetwork.visualizer.radioVisualizer antennaLobeLogarithmicBase 10
par MinimalAttackNetwork.visualizer.radioVisualizer antennaLobeLogarithmicScale 100
par MinimalAttackNetwork.visualizer.radioVisualizer antennaLobeRadius 100
par MinimalAttackNetwork.visualizer.radioVisualizer antennaLobeStep 10deg
attr unit deg
par MinimalAttackNetwork.visualizer.radioVisualizer antennaLobeOpacity 0.25
par MinimalAttackNetwork.visualizer.radioVisualizer antennaLobeLineSmooth true
par MinimalAttackNetwork.visualizer.radioVisualizer antennaLobeLineColor "\"black\""
par MinimalAttackNetwork.visualizer.radioVisualizer antennaLobeLineStyle "\"solid\""
par MinimalAttackNetwork.visualizer.radioVisualizer antennaLobeLineWidth 1
par MinimalAttackNetwork.visualizer.radioVisualizer antennaLobeFillColor "\"white\""
par MinimalAttackNetwork.visualizer.radioVisualizer zIndex 10
par MinimalAttackNetwork.visualizer.physicalLinkVisualizer typename "\"inet.visualizer.canvas.physicallayer.PhysicalLinkCanvasVisualizer\""
par MinimalAttackNetwork.visualizer.physicalLinkVisualizer visualizationTargetModule "\"^.^\""
par MinimalAttackNetwork.visualizer.physicalLinkVisualizer visualizationSubjectModule "\"^.^\""
par MinimalAttackNetwork.visualizer.physicalLinkVisualizer tags "\"\""
par MinimalAttackNetwork.visualizer.physicalLinkVisualizer displayLinks false
par MinimalAttackNetwork.visualizer.physicalLinkVisualizer activityLevel "\"service\""
attr enum service,peer,protocol
par MinimalAttackNetwork.visualizer.physicalLinkVisualizer nodeFilter "\"*\""
attr mutable ""
par MinimalAttackNetwork.visualizer.physicalLinkVisualizer interfaceFilter "\"*\""
attr mutable ""
par MinimalAttackNetwork.visualizer.physicalLinkVisualizer packetFilter "(omnetpp::cValueHolder)holder: \"*\""
attr mutable ""
par MinimalAttackNetwork.visualizer.physicalLinkVisualizer lineColor "\"olive\""
par MinimalAttackNetwork.visualizer.physicalLinkVisualizer lineStyle "\"dotted\""
par MinimalAttackNetwork.visualizer.physicalLinkVisualizer lineWidth 3
par MinimalAttackNetwork.visualizer.physicalLinkVisualizer lineShift 16
par MinimalAttackNetwork.visualizer.physicalLinkVisualizer lineShiftMode "\"normal\""
par MinimalAttackNetwork.visualizer.physicalLinkVisualizer lineContactSpacing 3
par MinimalAttackNetwork.visualizer.physicalLinkVisualizer lineContactMode "\"rectangular\""
attr enum circular,rectangular
par MinimalAttackNetwork.visualizer.physicalLinkVisualizer labelFormat "\"%n\""
par MinimalAttackNetwork.visualizer.physicalLinkVisualizer labelFont "\"<default>, 8px\""
par MinimalAttackNetwork.visualizer.physicalLinkVisualizer labelColor "\"olive\""
par MinimalAttackNetwork.visualizer.physicalLinkVisualizer fadeOutMode "\"realTime\""
attr enum realTime,animationTime,simulationTime
par MinimalAttackNetwork.visualizer.physicalLinkVisualizer fadeOutTime 1s
attr unit s
par MinimalAttackNetwork.visualizer.physicalLinkVisualizer fadeOutAnimationSpeed 0
par MinimalAttackNetwork.visualizer.physicalLinkVisualizer holdAnimationTime 0s
attr unit s
par MinimalAttackNetwork.visualizer.physicalLinkVisualizer zIndex 1
par MinimalAttackNetwork.visualizer.interfaceTableVisualizer typename "\"inet.visualizer.canvas.linklayer.InterfaceTableCanvasVisualizer\""
par MinimalAttackNetwork.visualizer.interfaceTableVisualizer visualizationTargetModule "\"^.^\""
par MinimalAttackNetwork.visualizer.interfaceTableVisualizer visualizationSubjectModule "\"^.^\""
par MinimalAttackNetwork.visualizer.interfaceTableVisualizer tags "\"\""
par MinimalAttackNetwork.visualizer.interfaceTableVisualizer networkNodeVisualizerModule "\"^.networkNodeVisualizer\""
par MinimalAttackNetwork.visualizer.interfaceTableVisualizer displayInterfaceTables false
par MinimalAttackNetwork.visualizer.interfaceTableVisualizer displayWiredInterfacesAtConnections true
par MinimalAttackNetwork.visualizer.interfaceTableVisualizer displayBackground false
par MinimalAttackNetwork.visualizer.interfaceTableVisualizer nodeFilter "\"*\""
attr mutable ""
par MinimalAttackNetwork.visualizer.interfaceTableVisualizer interfaceFilter "\"not(lo*)\""
attr mutable ""
par MinimalAttackNetwork.visualizer.interfaceTableVisualizer format "\"%N %\\\\%a%/%l\""
attr mutable ""
par MinimalAttackNetwork.visualizer.interfaceTableVisualizer placementHint "\"top\""
par MinimalAttackNetwork.visualizer.interfaceTableVisualizer placementPriority 0
par MinimalAttackNetwork.visualizer.interfaceTableVisualizer font "\"<default>\""
par MinimalAttackNetwork.visualizer.interfaceTableVisualizer textColor "\"#005030\""
par MinimalAttackNetwork.visualizer.interfaceTableVisualizer backgroundColor "\"white\""
par MinimalAttackNetwork.visualizer.interfaceTableVisualizer opacity 1
par MinimalAttackNetwork.visualizer.interfaceTableVisualizer zIndex 10
par MinimalAttackNetwork.visualizer.dataLinkVisualizer typename "\"inet.visualizer.canvas.linklayer.DataLinkCanvasVisualizer\""
par MinimalAttackNetwork.visualizer.dataLinkVisualizer visualizationTargetModule "\"^.^\""
par MinimalAttackNetwork.visualizer.dataLinkVisualizer visualizationSubjectModule "\"^.^\""
par MinimalAttackNetwork.visualizer.dataLinkVisualizer tags "\"\""
par MinimalAttackNetwork.visualizer.dataLinkVisualizer displayLinks true
par MinimalAttackNetwork.visualizer.dataLinkVisualizer activityLevel "\"protocol\""
attr enum service,peer,protocol
par MinimalAttackNetwork.visualizer.dataLinkVisualizer nodeFilter "\"*\""
attr mutable ""
par MinimalAttackNetwork.visualizer.dataLinkVisualizer interfaceFilter "\"*\""
attr mutable ""
par MinimalAttackNetwork.visualizer.dataLinkVisualizer packetFilter "(omnetpp::cValueHolder)holder: \"*\""
attr mutable ""
par MinimalAttackNetwork.visualizer.dataLinkVisualizer lineColor "\"darkcyan\""
par MinimalAttackNetwork.visualizer.dataLinkVisualizer lineStyle "\"solid\""
par MinimalAttackNetwork.visualizer.dataLinkVisualizer lineWidth 3
par MinimalAttackNetwork.visualizer.dataLinkVisualizer lineShift 16
par MinimalAttackNetwork.visualizer.dataLinkVisualizer lineShiftMode "\"normal\""
par MinimalAttackNetwork.visualizer.dataLinkVisualizer lineContactSpacing 3
par MinimalAttackNetwork.visualizer.dataLinkVisualizer lineContactMode "\"rectangular\""
attr enum circular,rectangular
par MinimalAttackNetwork.visualizer.dataLinkVisualizer labelFormat "\"%n\""
par MinimalAttackNetwork.visualizer.dataLinkVisualizer labelFont "\"<default>, 8px\""
par MinimalAttackNetwork.visualizer.dataLinkVisualizer labelColor "\"darkcyan\""
par MinimalAttackNetwork.visualizer.dataLinkVisualizer fadeOutMode "\"simulationTime\""
attr enum realTime,animationTime,simulationTime
par MinimalAttackNetwork.visualizer.dataLinkVisualizer fadeOutTime 0.2s
attr unit s
par MinimalAttackNetwork.visualizer.dataLinkVisualizer fadeOutAnimationSpeed 0
par MinimalAttackNetwork.visualizer.dataLinkVisualizer holdAnimationTime 0s
attr unit s
par MinimalAttackNetwork.visualizer.dataLinkVisualizer zIndex 2
par MinimalAttackNetwork.visualizer.linkBreakVisualizer typename "\"inet.visualizer.canvas.linklayer.LinkBreakCanvasVisualizer\""
par MinimalAttackNetwork.visualizer.linkBreakVisualizer visualizationTargetModule "\"^.^\""
par MinimalAttackNetwork.visualizer.linkBreakVisualizer visualizationSubjectModule "\"^.^\""
par MinimalAttackNetwork.visualizer.linkBreakVisualizer tags "\"\""
par MinimalAttackNetwork.visualizer.linkBreakVisualizer displayLinkBreaks false
par MinimalAttackNetwork.visualizer.linkBreakVisualizer nodeFilter "\"*\""
attr mutable ""
par MinimalAttackNetwork.visualizer.linkBreakVisualizer interfaceFilter "\"*\""
attr mutable ""
par MinimalAttackNetwork.visualizer.linkBreakVisualizer packetFilter "(omnetpp::cValueHolder)holder: \"*\""
attr mutable ""
par MinimalAttackNetwork.visualizer.linkBreakVisualizer icon "\"status/stop\""
par MinimalAttackNetwork.visualizer.linkBreakVisualizer iconTintAmount 0
par MinimalAttackNetwork.visualizer.linkBreakVisualizer iconTintColor "\"\""
par MinimalAttackNetwork.visualizer.linkBreakVisualizer fadeOutMode "\"realTime\""
attr enum realTime,animationTime,simulationTime
par MinimalAttackNetwork.visualizer.linkBreakVisualizer fadeOutTime 1s
attr unit s
par MinimalAttackNetwork.visualizer.linkBreakVisualizer fadeOutAnimationSpeed 0
par MinimalAttackNetwork.visualizer.linkBreakVisualizer zIndex 2
par MinimalAttackNetwork.visualizer.ieee80211Visualizer typename "\"inet.visualizer.canvas.linklayer.Ieee80211CanvasVisualizer\""
par MinimalAttackNetwork.visualizer.ieee80211Visualizer visualizationTargetModule "\"^.^\""
par MinimalAttackNetwork.visualizer.ieee80211Visualizer visualizationSubjectModule "\"^.^\""
par MinimalAttackNetwork.visualizer.ieee80211Visualizer tags "\"\""
par MinimalAttackNetwork.visualizer.ieee80211Visualizer networkNodeVisualizerModule "\"^.networkNodeVisualizer\""
par MinimalAttackNetwork.visualizer.ieee80211Visualizer displayAssociations false
par MinimalAttackNetwork.visualizer.ieee80211Visualizer nodeFilter "\"*\""
attr mutable ""
par MinimalAttackNetwork.visualizer.ieee80211Visualizer interfaceFilter "\"*\""
attr mutable ""
par MinimalAttackNetwork.visualizer.ieee80211Visualizer minPower -85dBm
attr unit dBm
par MinimalAttackNetwork.visualizer.ieee80211Visualizer maxPower -50dBm
attr unit dBm
par MinimalAttackNetwork.visualizer.ieee80211Visualizer icons "\"misc/signal_power_0 misc/signal_power_1 misc/signal_power_2 misc/signal_power_3\""
par MinimalAttackNetwork.visualizer.ieee80211Visualizer iconColor "\"dark\""
par MinimalAttackNetwork.visualizer.ieee80211Visualizer labelFont "\"<default>\""
par MinimalAttackNetwork.visualizer.ieee80211Visualizer labelColor "\"black\""
par MinimalAttackNetwork.visualizer.ieee80211Visualizer placementHint "\"top\""
par MinimalAttackNetwork.visualizer.ieee80211Visualizer placementPriority 0
par MinimalAttackNetwork.visualizer.ieee80211Visualizer zIndex 2
par MinimalAttackNetwork.visualizer.networkRouteVisualizer typename "\"inet.visualizer.canvas.networklayer.NetworkRouteCanvasVisualizer\""
par MinimalAttackNetwork.visualizer.networkRouteVisualizer visualizationTargetModule "\"^.^\""
par MinimalAttackNetwork.visualizer.networkRouteVisualizer visualizationSubjectModule "\"^.^\""
par MinimalAttackNetwork.visualizer.networkRouteVisualizer tags "\"\""
par MinimalAttackNetwork.visualizer.networkRouteVisualizer displayRoutes false
par MinimalAttackNetwork.visualizer.networkRouteVisualizer startPathSignal "\"packetReceivedFromUpper\""
par MinimalAttackNetwork.visualizer.networkRouteVisualizer extendPathSignal "\"packetReceivedFromLower\""
par MinimalAttackNetwork.visualizer.networkRouteVisualizer endPathSignal "\"packetSentToUpper\""
par MinimalAttackNetwork.visualizer.networkRouteVisualizer nodeFilter "\"*\""
attr mutable ""
par MinimalAttackNetwork.visualizer.networkRouteVisualizer packetFilter "(omnetpp::cValueHolder)holder: \"*\""
attr mutable ""
par MinimalAttackNetwork.visualizer.networkRouteVisualizer lineColor "\"dark\""
par MinimalAttackNetwork.visualizer.networkRouteVisualizer lineStyle "\"solid\""
par MinimalAttackNetwork.visualizer.networkRouteVisualizer lineWidth 3
par MinimalAttackNetwork.visualizer.networkRouteVisualizer lineSmooth false
par MinimalAttackNetwork.visualizer.networkRouteVisualizer lineShift 16
par MinimalAttackNetwork.visualizer.networkRouteVisualizer lineShiftMode "\"normal\""
par MinimalAttackNetwork.visualizer.networkRouteVisualizer lineContactSpacing 3
par MinimalAttackNetwork.visualizer.networkRouteVisualizer lineContactMode "\"rectangular\""
attr enum circular,rectangular
par MinimalAttackNetwork.visualizer.networkRouteVisualizer labelFormat "\"%n\""
par MinimalAttackNetwork.visualizer.networkRouteVisualizer labelFont "\"<default>, 8px\""
par MinimalAttackNetwork.visualizer.networkRouteVisualizer labelColor "\"\""
par MinimalAttackNetwork.visualizer.networkRouteVisualizer fadeOutMode "\"realTime\""
attr enum realTime,animationTime,simulationTime
par MinimalAttackNetwork.visualizer.networkRouteVisualizer fadeOutTime 1s
attr unit s
par MinimalAttackNetwork.visualizer.networkRouteVisualizer fadeOutAnimationSpeed 0
par MinimalAttackNetwork.visualizer.networkRouteVisualizer zIndex 3
par MinimalAttackNetwork.visualizer.routingTableVisualizer typename "\"inet.visualizer.canvas.networklayer.RoutingTableCanvasVisualizer\""
par MinimalAttackNetwork.visualizer.routingTableVisualizer visualizationTargetModule "\"^.^\""
par MinimalAttackNetwork.visualizer.routingTableVisualizer visualizationSubjectModule "\"^.^\""
par MinimalAttackNetwork.visualizer.routingTableVisualizer tags "\"\""
par MinimalAttackNetwork.visualizer.routingTableVisualizer displayRoutingTables false
par MinimalAttackNetwork.visualizer.routingTableVisualizer displayRoutesIndividually true
par MinimalAttackNetwork.visualizer.routingTableVisualizer displayLabels true
par MinimalAttackNetwork.visualizer.routingTableVisualizer destinationFilter "\"*\""
attr mutable ""
par MinimalAttackNetwork.visualizer.routingTableVisualizer nodeFilter "\"*\""
attr mutable ""
par MinimalAttackNetwork.visualizer.routingTableVisualizer lineColor "\"black\""
par MinimalAttackNetwork.visualizer.routingTableVisualizer lineStyle "\"solid\""
par MinimalAttackNetwork.visualizer.routingTableVisualizer lineWidth 2
par MinimalAttackNetwork.visualizer.routingTableVisualizer lineShift 16
par MinimalAttackNetwork.visualizer.routingTableVisualizer lineShiftMode "\"normal\""
par MinimalAttackNetwork.visualizer.routingTableVisualizer lineContactSpacing 3
par MinimalAttackNetwork.visualizer.routingTableVisualizer lineContactMode "\"rectangular\""
attr enum circular,rectangular
par MinimalAttackNetwork.visualizer.routingTableVisualizer labelFormat "\"%d/%m -> %g (%n)\""
attr mutable ""
par MinimalAttackNetwork.visualizer.routingTableVisualizer labelFont "\"<default>, 8px\""
par MinimalAttackNetwork.visualizer.routingTableVisualizer labelColor "\"black\""
par MinimalAttackNetwork.visualizer.routingTableVisualizer zIndex 0
par MinimalAttackNetwork.visualizer.transportRouteVisualizer typename "\"inet.visualizer.canvas.transportlayer.TransportRouteCanvasVisualizer\""
par MinimalAttackNetwork.visualizer.transportRouteVisualizer visualizationTargetModule "\"^.^\""
par MinimalAttackNetwork.visualizer.transportRouteVisualizer visualizationSubjectModule "\"^.^\""
par MinimalAttackNetwork.visualizer.transportRouteVisualizer tags "\"\""
par MinimalAttackNetwork.visualizer.transportRouteVisualizer displayRoutes false
par MinimalAttackNetwork.visualizer.transportRouteVisualizer startPathSignal "\"packetReceivedFromUpper\""
par MinimalAttackNetwork.visualizer.transportRouteVisualizer extendPathSignal "\"packetReceivedFromLower\""
par MinimalAttackNetwork.visualizer.transportRouteVisualizer endPathSignal "\"packetSentToUpper\""
par MinimalAttackNetwork.visualizer.transportRouteVisualizer nodeFilter "\"*\""
attr mutable ""
par MinimalAttackNetwork.visualizer.transportRouteVisualizer packetFilter "(omnetpp::cValueHolder)holder: \"*\""
attr mutable ""
par MinimalAttackNetwork.visualizer.transportRouteVisualizer lineColor "\"dark\""
par MinimalAttackNetwork.visualizer.transportRouteVisualizer lineStyle "\"solid\""
par MinimalAttackNetwork.visualizer.transportRouteVisualizer lineWidth 3
par MinimalAttackNetwork.visualizer.transportRouteVisualizer lineSmooth false
par MinimalAttackNetwork.visualizer.transportRouteVisualizer lineShift 16
par MinimalAttackNetwork.visualizer.transportRouteVisualizer lineShiftMode "\"normal\""
par MinimalAttackNetwork.visualizer.transportRouteVisualizer lineContactSpacing 3
par MinimalAttackNetwork.visualizer.transportRouteVisualizer lineContactMode "\"rectangular\""
attr enum circular,rectangular
par MinimalAttackNetwork.visualizer.transportRouteVisualizer labelFormat "\"%n\""
par MinimalAttackNetwork.visualizer.transportRouteVisualizer labelFont "\"<default>, 8px\""
par MinimalAttackNetwork.visualizer.transportRouteVisualizer labelColor "\"\""
par MinimalAttackNetwork.visualizer.transportRouteVisualizer fadeOutMode "\"realTime\""
attr enum realTime,animationTime,simulationTime
par MinimalAttackNetwork.visualizer.transportRouteVisualizer fadeOutTime 1s
attr unit s
par MinimalAttackNetwork.visualizer.transportRouteVisualizer fadeOutAnimationSpeed 0
par MinimalAttackNetwork.visualizer.transportRouteVisualizer zIndex 4
par MinimalAttackNetwork.visualizer.transportConnectionVisualizer typename "\"inet.visualizer.canvas.transportlayer.TransportConnectionCanvasVisualizer\""
par MinimalAttackNetwork.visualizer.transportConnectionVisualizer visualizationTargetModule "\"^.^\""
par MinimalAttackNetwork.visualizer.transportConnectionVisualizer visualizationSubjectModule "\"^.^\""
par MinimalAttackNetwork.visualizer.transportConnectionVisualizer tags "\"\""
par MinimalAttackNetwork.visualizer.transportConnectionVisualizer networkNodeVisualizerModule "\"^.networkNodeVisualizer\""
par MinimalAttackNetwork.visualizer.transportConnectionVisualizer displayTransportConnections false
par MinimalAttackNetwork.visualizer.transportConnectionVisualizer sourceNodeFilter "\"*\""
attr mutable ""
par MinimalAttackNetwork.visualizer.transportConnectionVisualizer sourcePortFilter "\"*\""
attr mutable ""
par MinimalAttackNetwork.visualizer.transportConnectionVisualizer destinationNodeFilter "\"*\""
attr mutable ""
par MinimalAttackNetwork.visualizer.transportConnectionVisualizer destinationPortFilter "\"*\""
attr mutable ""
par MinimalAttackNetwork.visualizer.transportConnectionVisualizer icon "\"misc/marker_s\""
par MinimalAttackNetwork.visualizer.transportConnectionVisualizer iconColor "\"dark\""
par MinimalAttackNetwork.visualizer.transportConnectionVisualizer labelFont "\"<default>\""
par MinimalAttackNetwork.visualizer.transportConnectionVisualizer labelColor "\"black\""
par MinimalAttackNetwork.visualizer.transportConnectionVisualizer placementHint "\"top\""
par MinimalAttackNetwork.visualizer.transportConnectionVisualizer placementPriority 0
par MinimalAttackNetwork.visualizer.transportConnectionVisualizer zIndex 4
par MinimalAttackNetwork.visualizer.failureProtectionConfigurationVisualizer typename "\"inet.visualizer.canvas.configurator.FailureProtectionConfigurationCanvasVisualizer\""
par MinimalAttackNetwork.visualizer.failureProtectionConfigurationVisualizer visualizationTargetModule "\"^.^\""
[...]
par MinimalAttackNetwork.compromisedNode.eth[0].phyLayer.interFrameGapInserter clockModule "\"\""
par MinimalAttackNetwork.compromisedNode.eth[0].phyLayer.interFrameGapInserter initialChannelBusy false
par MinimalAttackNetwork.compromisedNode.eth[0].phyLayer.interFrameGapInserter duration 96s/dropUnit(parent.bitrate)
attr unit s
par MinimalAttackNetwork.compromisedNode.eth[0].phyLayer.outboundEmitter typename "\"inet.protocolelement.common.PacketEmitter\""
par MinimalAttackNetwork.compromisedNode.eth[0].phyLayer.outboundEmitter displayStringTextFormat "\"processed %p pk (%l)\""
par MinimalAttackNetwork.compromisedNode.eth[0].phyLayer.outboundEmitter packetFilter "(omnetpp::cValueHolder)holder: \"*\""
par MinimalAttackNetwork.compromisedNode.eth[0].phyLayer.outboundEmitter direction "\"outbound\""
attr enum undefined,inbound,outbound
par MinimalAttackNetwork.compromisedNode.eth[0].phyLayer.outboundEmitter signalName "\"packetSentToLower\""
par MinimalAttackNetwork.compromisedNode.eth[0].phyLayer.transmitter typename "\"inet.protocolelement.transceiver.PacketTransmitter\""
par MinimalAttackNetwork.compromisedNode.eth[0].phyLayer.transmitter displayStringTextFormat "\"processed %p pk (%l)\""
par MinimalAttackNetwork.compromisedNode.eth[0].phyLayer.transmitter clockModule "\"\""
par MinimalAttackNetwork.compromisedNode.eth[0].phyLayer.transmitter datarate this.bitrate
attr unit bps
par MinimalAttackNetwork.compromisedNode.eth[0].phyLayer.phyHeaderChecker typename "\"inet.physicallayer.wired.ethernet.EthernetPhyHeaderChecker\""
par MinimalAttackNetwork.compromisedNode.eth[0].phyLayer.phyHeaderChecker displayStringTextFormat "\"dropped %d/%p pk (%k/%l)\""
par MinimalAttackNetwork.compromisedNode.eth[0].phyLayer.phyHeaderChecker backpressure false
par MinimalAttackNetwork.compromisedNode.eth[0].phyLayer.inboundEmitter typename "\"inet.protocolelement.common.PacketEmitter\""
par MinimalAttackNetwork.compromisedNode.eth[0].phyLayer.inboundEmitter displayStringTextFormat "\"processed %p pk (%l)\""
par MinimalAttackNetwork.compromisedNode.eth[0].phyLayer.inboundEmitter packetFilter "(omnetpp::cValueHolder)holder: \"*\""
par MinimalAttackNetwork.compromisedNode.eth[0].phyLayer.inboundEmitter direction "\"inbound\""
attr enum undefined,inbound,outbound
par MinimalAttackNetwork.compromisedNode.eth[0].phyLayer.inboundEmitter signalName "\"packetReceivedFromLower\""
par MinimalAttackNetwork.compromisedNode.eth[0].phyLayer.receiver typename "\"inet.protocolelement.transceiver.PacketReceiver\""
par MinimalAttackNetwork.compromisedNode.eth[0].phyLayer.receiver displayStringTextFormat "\"processed %p pk (%l)\""
par MinimalAttackNetwork.compromisedNode.eth[0].phyLayer.receiver datarate 1e+08bps
attr unit bps
par MinimalAttackNetwork.compromisedNode.eth[0].phyLayer typename "\"inet.physicallayer.wired.ethernet.EthernetPhyLayer\""
par MinimalAttackNetwork.compromisedNode.eth[0].phyLayer bitrate this.bitrate
attr unit bps
par MinimalAttackNetwork.compromisedNode.eth[0] typename "\"inet.linklayer.ethernet.LayeredEthernetInterface\""
par MinimalAttackNetwork.compromisedNode.eth[0] displayStringTextFormat "\"%a (%i)\\n%m\""
par MinimalAttackNetwork.compromisedNode.eth[0] recordPcap false
par MinimalAttackNetwork.compromisedNode.eth[0] numPcapRecorders 0
par MinimalAttackNetwork.compromisedNode.eth[0] protocol "\"ethernetmac\""
par MinimalAttackNetwork.compromisedNode.eth[0] broadcast true
par MinimalAttackNetwork.compromisedNode.eth[0] multicast true
par MinimalAttackNetwork.compromisedNode.eth[0] address "\"0A-AA-00-00-00-0C\""
attr mutable ""
par MinimalAttackNetwork.compromisedNode.eth[0] bitrate 1e+08bps
attr unit bps
par MinimalAttackNetwork.compromisedNode.eth[0] mtu 1500B
attr unit B
par MinimalAttackNetwork.compromisedNode.eth[0] interfaceTableModule "\"MinimalAttackNetwork.compromisedNode.interfaceTable\""
par MinimalAttackNetwork.compromisedNode.ipv4.transportIn.channel typename "\"ned.IdealChannel\""
par MinimalAttackNetwork.compromisedNode.ipv4.up.out[0].channel typename "\"ned.IdealChannel\""
par MinimalAttackNetwork.compromisedNode.ipv4.lp.out[2].channel typename "\"ned.IdealChannel\""
par MinimalAttackNetwork.compromisedNode.ipv4.ifIn.channel typename "\"ned.IdealChannel\""
par MinimalAttackNetwork.compromisedNode.ipv4.configurator typename "\"inet.networklayer.configurator.ipv4.Ipv4NodeConfigurator\""
par MinimalAttackNetwork.compromisedNode.ipv4.configurator interfaceTableModule "\"MinimalAttackNetwork.compromisedNode.interfaceTable\""
par MinimalAttackNetwork.compromisedNode.ipv4.configurator routingTableModule "\"MinimalAttackNetwork.compromisedNode.ipv4.routingTable\""
par MinimalAttackNetwork.compromisedNode.ipv4.configurator networkConfiguratorModule "\"configurator\""
par MinimalAttackNetwork.compromisedNode.ipv4.configurator configureRoutingTable true
par MinimalAttackNetwork.compromisedNode.ipv4.routingTable typename "\"inet.networklayer.ipv4.Ipv4RoutingTable\""
par MinimalAttackNetwork.compromisedNode.ipv4.routingTable interfaceTableModule "\"MinimalAttackNetwork.compromisedNode.interfaceTable\""
par MinimalAttackNetwork.compromisedNode.ipv4.routingTable routerId "\"auto\""
par MinimalAttackNetwork.compromisedNode.ipv4.routingTable netmaskRoutes "\"*\""
par MinimalAttackNetwork.compromisedNode.ipv4.routingTable forwarding false
par MinimalAttackNetwork.compromisedNode.ipv4.routingTable multicastForwarding false
par MinimalAttackNetwork.compromisedNode.ipv4.routingTable useAdminDist false
par MinimalAttackNetwork.compromisedNode.ipv4.routingTable routingFile "\"\""
par MinimalAttackNetwork.compromisedNode.ipv4.natTable typename "\"inet.networklayer.ipv4.Ipv4NatTable\""
par MinimalAttackNetwork.compromisedNode.ipv4.natTable networkProtocolModule "\"^.ip\""
par MinimalAttackNetwork.compromisedNode.ipv4.natTable config "<config/> at content:1"
par MinimalAttackNetwork.compromisedNode.ipv4.up typename "\"inet.common.MessageDispatcher\""
par MinimalAttackNetwork.compromisedNode.ipv4.up displayStringTextFormat "\"processed %p pk (%l)\""
par MinimalAttackNetwork.compromisedNode.ipv4.up forwardServiceRegistration true
par MinimalAttackNetwork.compromisedNode.ipv4.up forwardProtocolRegistration true
par MinimalAttackNetwork.compromisedNode.ipv4.igmp typename "\"inet.networklayer.ipv4.Igmpv2\""
par MinimalAttackNetwork.compromisedNode.ipv4.igmp interfaceTableModule "\"MinimalAttackNetwork.compromisedNode.interfaceTable\""
par MinimalAttackNetwork.compromisedNode.ipv4.igmp routingTableModule "\"MinimalAttackNetwork.compromisedNode.ipv4.routingTable\""
par MinimalAttackNetwork.compromisedNode.ipv4.igmp crcMode "\"declared\""
attr enum declared,computed
par MinimalAttackNetwork.compromisedNode.ipv4.igmp enabled true
par MinimalAttackNetwork.compromisedNode.ipv4.igmp robustnessVariable 2
par MinimalAttackNetwork.compromisedNode.ipv4.igmp queryInterval 125s
attr unit s
par MinimalAttackNetwork.compromisedNode.ipv4.igmp queryResponseInterval 10s
attr unit s
par MinimalAttackNetwork.compromisedNode.ipv4.igmp groupMembershipInterval 260s
attr unit s
par MinimalAttackNetwork.compromisedNode.ipv4.igmp otherQuerierPresentInterval 255s
attr unit s
par MinimalAttackNetwork.compromisedNode.ipv4.igmp startupQueryInterval 31.25s
attr unit s
par MinimalAttackNetwork.compromisedNode.ipv4.igmp startupQueryCount 2
par MinimalAttackNetwork.compromisedNode.ipv4.igmp lastMemberQueryInterval 1s
attr unit s
par MinimalAttackNetwork.compromisedNode.ipv4.igmp lastMemberQueryCount 2
par MinimalAttackNetwork.compromisedNode.ipv4.igmp unsolicitedReportInterval 10s
attr unit s
par MinimalAttackNetwork.compromisedNode.ipv4.icmp typename "\"inet.networklayer.ipv4.Icmp\""
par MinimalAttackNetwork.compromisedNode.ipv4.icmp interfaceTableModule "\"MinimalAttackNetwork.compromisedNode.interfaceTable\""
par MinimalAttackNetwork.compromisedNode.ipv4.icmp routingTableModule "\"MinimalAttackNetwork.compromisedNode.ipv4.routingTable\""
par MinimalAttackNetwork.compromisedNode.ipv4.icmp crcMode "\"declared\""
attr enum declared,computed
attr mutable ""
par MinimalAttackNetwork.compromisedNode.ipv4.icmp quoteLength 8B
attr mutable ""
attr unit B
par MinimalAttackNetwork.compromisedNode.ipv4.mp typename "\"inet.common.MessageDispatcher\""
par MinimalAttackNetwork.compromisedNode.ipv4.mp displayStringTextFormat "\"processed %p pk (%l)\""
par MinimalAttackNetwork.compromisedNode.ipv4.mp forwardServiceRegistration true
par MinimalAttackNetwork.compromisedNode.ipv4.mp forwardProtocolRegistration true
par MinimalAttackNetwork.compromisedNode.ipv4.ip typename "\"inet.networklayer.ipv4.Ipv4\""
par MinimalAttackNetwork.compromisedNode.ipv4.ip interfaceTableModule "\"MinimalAttackNetwork.compromisedNode.interfaceTable\""
par MinimalAttackNetwork.compromisedNode.ipv4.ip routingTableModule "\"MinimalAttackNetwork.compromisedNode.ipv4.routingTable\""
par MinimalAttackNetwork.compromisedNode.ipv4.ip arpModule "\"MinimalAttackNetwork.compromisedNode.ipv4.arp\""
par MinimalAttackNetwork.compromisedNode.ipv4.ip icmpModule "\"MinimalAttackNetwork.compromisedNode.ipv4.icmp\""
par MinimalAttackNetwork.compromisedNode.ipv4.ip crcMode "\"declared\""
attr enum declared,computed
par MinimalAttackNetwork.compromisedNode.ipv4.ip timeToLive 32
par MinimalAttackNetwork.compromisedNode.ipv4.ip multicastTimeToLive 32
par MinimalAttackNetwork.compromisedNode.ipv4.ip fragmentTimeout 60s
attr unit s
par MinimalAttackNetwork.compromisedNode.ipv4.ip limitedBroadcast false
par MinimalAttackNetwork.compromisedNode.ipv4.ip directBroadcastInterfaces "\"\""
par MinimalAttackNetwork.compromisedNode.ipv4.arp typename "\"inet.networklayer.arp.ipv4.GlobalArp\""
par MinimalAttackNetwork.compromisedNode.ipv4.arp interfaceTableModule "\"MinimalAttackNetwork.compromisedNode.interfaceTable\""
par MinimalAttackNetwork.compromisedNode.ipv4.arp addressType "\"ipv4\""
attr enum ipv4,ipv6,mac,moduleid,modulepath
par MinimalAttackNetwork.compromisedNode.ipv4.lp typename "\"inet.common.MessageDispatcher\""
par MinimalAttackNetwork.compromisedNode.ipv4.lp displayStringTextFormat "\"processed %p pk (%l)\""
par MinimalAttackNetwork.compromisedNode.ipv4.lp forwardServiceRegistration true
par MinimalAttackNetwork.compromisedNode.ipv4.lp forwardProtocolRegistration true
par MinimalAttackNetwork.compromisedNode.ipv4 typename "\"inet.networklayer.ipv4.Ipv4NetworkLayer\""
par MinimalAttackNetwork.compromisedNode.ipv4 forwarding false
par MinimalAttackNetwork.compromisedNode.ipv4 multicastForwarding false
par MinimalAttackNetwork.compromisedNode.ipv4 interfaceTableModule "\"MinimalAttackNetwork.compromisedNode.interfaceTable\""
par MinimalAttackNetwork.compromisedNode.ipv4 displayStringTextFormat "\"%i\""
par MinimalAttackNetwork.compromisedNode.nl typename "\"inet.common.MessageDispatcher\""
par MinimalAttackNetwork.compromisedNode.nl displayStringTextFormat "\"processed %p pk (%l)\""
par MinimalAttackNetwork.compromisedNode.nl forwardServiceRegistration true
par MinimalAttackNetwork.compromisedNode.nl forwardProtocolRegistration true
par MinimalAttackNetwork.compromisedNode.udp typename "\"inet.transportlayer.udp.Udp\""
par MinimalAttackNetwork.compromisedNode.udp interfaceTableModule "\"MinimalAttackNetwork.compromisedNode.interfaceTable\""
par MinimalAttackNetwork.compromisedNode.udp icmpModule "\"^.ipv4.icmp\""
par MinimalAttackNetwork.compromisedNode.udp icmpv6Module "\"^.ipv6.icmpv6\""
par MinimalAttackNetwork.compromisedNode.udp crcMode "\"declared\""
attr enum disabled,declared,computed
par MinimalAttackNetwork.compromisedNode.udp defaultMulticastLoop true
par MinimalAttackNetwork.compromisedNode.tcp typename "\"inet.transportlayer.tcp.Tcp\""
par MinimalAttackNetwork.compromisedNode.tcp crcMode "\"declared\""
attr enum declared,computed
par MinimalAttackNetwork.compromisedNode.tcp advertisedWindow 7504
par MinimalAttackNetwork.compromisedNode.tcp delayedAcksEnabled false
par MinimalAttackNetwork.compromisedNode.tcp nagleEnabled true
par MinimalAttackNetwork.compromisedNode.tcp limitedTransmitEnabled false
par MinimalAttackNetwork.compromisedNode.tcp increasedIWEnabled false
par MinimalAttackNetwork.compromisedNode.tcp sackSupport false
par MinimalAttackNetwork.compromisedNode.tcp windowScalingSupport false
par MinimalAttackNetwork.compromisedNode.tcp windowScalingFactor -1
par MinimalAttackNetwork.compromisedNode.tcp timestampSupport false
par MinimalAttackNetwork.compromisedNode.tcp mss 536
par MinimalAttackNetwork.compromisedNode.tcp msl 120s
attr unit s
par MinimalAttackNetwork.compromisedNode.tcp tcpAlgorithmClass "\"TcpReno\""
par MinimalAttackNetwork.compromisedNode.tcp useDataNotification false
par MinimalAttackNetwork.compromisedNode.tcp dupthresh 3
par MinimalAttackNetwork.compromisedNode.tcp initialSsthresh 4294967295
par MinimalAttackNetwork.compromisedNode.tcp stopOperationExtraTime 0s
attr unit s
par MinimalAttackNetwork.compromisedNode.tcp stopOperationTimeout 2s
attr unit s
par MinimalAttackNetwork.compromisedNode.tcp ecnWillingness false
par MinimalAttackNetwork.compromisedNode.tcp dctcpGamma 0.0625
par MinimalAttackNetwork.compromisedNode.tn typename "\"inet.common.MessageDispatcher\""
par MinimalAttackNetwork.compromisedNode.tn displayStringTextFormat "\"processed %p pk (%l)\""
par MinimalAttackNetwork.compromisedNode.tn forwardServiceRegistration true
par MinimalAttackNetwork.compromisedNode.tn forwardProtocolRegistration true
par MinimalAttackNetwork.compromisedNode.app[0].source typename "\"inet.queueing.source.ActivePacketSource\""
par MinimalAttackNetwork.compromisedNode.app[0].source displayStringTextFormat "\"created %p pk (%l)\""
par MinimalAttackNetwork.compromisedNode.app[0].source packetNameFormat "\"TIMING_ATTACK-%c\""
par MinimalAttackNetwork.compromisedNode.app[0].source packetRepresentation "\"byteCount\""
attr units bitCount,bits,byteCount,bytes,applicationPacket
par MinimalAttackNetwork.compromisedNode.app[0].source packetProtocol "\"unknown\""
par MinimalAttackNetwork.compromisedNode.app[0].source packetLength 512b
attr unit b
par MinimalAttackNetwork.compromisedNode.app[0].source packetData -1
par MinimalAttackNetwork.compromisedNode.app[0].source attachCreationTimeTag true
par MinimalAttackNetwork.compromisedNode.app[0].source attachIdentityTag true
par MinimalAttackNetwork.compromisedNode.app[0].source attachDirectionTag true
par MinimalAttackNetwork.compromisedNode.app[0].source clockModule "\"\""
par MinimalAttackNetwork.compromisedNode.app[0].source initialProductionOffset -1s
attr mutable ""
attr unit s
par MinimalAttackNetwork.compromisedNode.app[0].source productionInterval "uniform(10us, 100us)"
attr unit s
par MinimalAttackNetwork.compromisedNode.app[0].source scheduleForAbsoluteTime true
par MinimalAttackNetwork.compromisedNode.app[0].io typename "\"inet.applications.udpapp.UdpSocketIo\""
par MinimalAttackNetwork.compromisedNode.app[0].io interfaceTableModule "\"MinimalAttackNetwork.compromisedNode.app[0].interfaceTable\""
par MinimalAttackNetwork.compromisedNode.app[0].io localAddress "\"\""
par MinimalAttackNetwork.compromisedNode.app[0].io localPort -1
par MinimalAttackNetwork.compromisedNode.app[0].io destAddress "\"mainECU\""
par MinimalAttackNetwork.compromisedNode.app[0].io destPort 8888
par MinimalAttackNetwork.compromisedNode.app[0].io timeToLive -1
par MinimalAttackNetwork.compromisedNode.app[0].io dontFragment false
par MinimalAttackNetwork.compromisedNode.app[0].io dscp -1
par MinimalAttackNetwork.compromisedNode.app[0].io tos -1
par MinimalAttackNetwork.compromisedNode.app[0].io multicastInterface "\"\""
par MinimalAttackNetwork.compromisedNode.app[0].io multicastAddresses []
par MinimalAttackNetwork.compromisedNode.app[0].io receiveBroadcast false
par MinimalAttackNetwork.compromisedNode.app[0].io joinLocalMulticastGroups false
par MinimalAttackNetwork.compromisedNode.app[0].io stopOperationExtraTime -1s
attr unit s
par MinimalAttackNetwork.compromisedNode.app[0].io stopOperationTimeout 2s
attr unit s
par MinimalAttackNetwork.compromisedNode.app[0] typename "\"inet.applications.udpapp.UdpSourceApp\""
par MinimalAttackNetwork.compromisedNode.app[0] interfaceTableModule "\"MinimalAttackNetwork.compromisedNode.interfaceTable\""
par MinimalAttackNetwork.compromisedNode.at typename "\"inet.common.MessageDispatcher\""
par MinimalAttackNetwork.compromisedNode.at displayStringTextFormat "\"processed %p pk (%l)\""
par MinimalAttackNetwork.compromisedNode.at forwardServiceRegistration true
par MinimalAttackNetwork.compromisedNode.at forwardProtocolRegistration true
par MinimalAttackNetwork.compromisedNode.gptp typename "\"inet.linklayer.ieee8021as.Gptp\""
par MinimalAttackNetwork.compromisedNode.gptp clockModule "\"MinimalAttackNetwork.compromisedNode.clock\""
par MinimalAttackNetwork.compromisedNode.gptp interfaceTableModule "\"MinimalAttackNetwork.compromisedNode.interfaceTable\""
par MinimalAttackNetwork.compromisedNode.gptp gptpNodeType "\"SLAVE_NODE\""
par MinimalAttackNetwork.compromisedNode.gptp domainNumber 0
par MinimalAttackNetwork.compromisedNode.gptp slavePort "\"eth0\""
par MinimalAttackNetwork.compromisedNode.gptp masterPorts []
par MinimalAttackNetwork.compromisedNode.gptp correctionField 0s
attr unit s
par MinimalAttackNetwork.compromisedNode.gptp syncInterval 0.01s
attr unit s
par MinimalAttackNetwork.compromisedNode.gptp pdelayInterval 0.05s
attr unit s
par MinimalAttackNetwork.compromisedNode.gptp syncInitialOffset 0.001s
attr unit s
par MinimalAttackNetwork.compromisedNode.gptp pdelayInitialOffset 0.001s
attr unit s
par MinimalAttackNetwork.compromisedNode.gptp pDelayReqProcessingTime 8e-06s
attr unit s
par MinimalAttackNetwork.compromisedNode.gptp followUpInterval 7e-06s
attr unit s
par MinimalAttackNetwork.compromisedNode typename "\"inet.node.tsn.TsnDevice\""
par MinimalAttackNetwork.compromisedNode hasStatus false
par MinimalAttackNetwork.compromisedNode osgModel "\"\""
par MinimalAttackNetwork.compromisedNode osgModelColor "\"\""
par MinimalAttackNetwork.compromisedNode canvasImage "\"\""
par MinimalAttackNetwork.compromisedNode canvasImageColor "\"\""
par MinimalAttackNetwork.compromisedNode recordPcap false
par MinimalAttackNetwork.compromisedNode numPcapRecorders 0
par MinimalAttackNetwork.compromisedNode numLoInterfaces 1
par MinimalAttackNetwork.compromisedNode numWlanInterfaces 0
par MinimalAttackNetwork.compromisedNode numEthInterfaces 0
par MinimalAttackNetwork.compromisedNode numPppInterfaces 0
par MinimalAttackNetwork.compromisedNode numTunInterfaces 0
par MinimalAttackNetwork.compromisedNode numVirtInterfaces 0
par MinimalAttackNetwork.compromisedNode fcsMode "\"declared\""
attr enum declared,computed
par MinimalAttackNetwork.compromisedNode hasIpv4 true
par MinimalAttackNetwork.compromisedNode hasIpv6 false
par MinimalAttackNetwork.compromisedNode hasGn false
par MinimalAttackNetwork.compromisedNode forwarding false
par MinimalAttackNetwork.compromisedNode multicastForwarding false
par MinimalAttackNetwork.compromisedNode hasUdp true
par MinimalAttackNetwork.compromisedNode hasTcp true
par MinimalAttackNetwork.compromisedNode hasSctp false
par MinimalAttackNetwork.compromisedNode numApps 1
par MinimalAttackNetwork.compromisedNode hasTimeSynchronization true
par MinimalAttackNetwork.compromisedNode hasIngressTrafficFiltering false
par MinimalAttackNetwork.compromisedNode hasEgressTrafficFiltering false
par MinimalAttackNetwork.compromisedNode hasEgressTrafficShaping false
par MinimalAttackNetwork.compromisedNode hasStreamRedundancy false
par MinimalAttackNetwork.compromisedNode hasIncomingStreams false
par MinimalAttackNetwork.compromisedNode hasOutgoingStreams true
par MinimalAttackNetwork.compromisedNode hasFramePreemption false
par MinimalAttackNetwork.compromisedNode hasCutthroughSwitching false
par MinimalAttackNetwork typename "\"simulations.MinimalAttackNetwork\""
par MinimalAttackNetwork recordPcap false
par MinimalAttackNetwork numPcapRecorders 0
par MinimalAttackNetwork hasGlobalArp true

